# System state of YLD124-300K simulation at step 210000
# System volume: 218308 Angström³ (periodic boundary conditions in x,y,z direction)
# Created Mon Jan 11 15:08:17 2016

@<TRIPOS>MOLECULE
YLD124-300K_0
 13500 13824 0 0 0
SMALL
USER_CHARGES

@<TRIPOS>ATOM
	1	C	-20.075789	-33.672993	-23.181026	C	1	YLD124.LOD1	-0.158041
	2	C	-20.872085	-34.579761	-22.546396	C	1	YLD124.LOD1	-0.174247
	3	H	-21.471856	-34.249100	-21.699852	H	1	YLD124.LOD1	0.11023
	4	H	-19.469264	-34.016653	-24.017319	H	1	YLD124.LOD1	0.116594
	5	N	-19.364439	-28.116979	-22.089359	N	1	YLD124.LOD1	-0.477879
	6	C	-19.556119	-29.462108	-22.356631	C	1	YLD124.LOD1	0.383639
	7	C	-20.447331	-30.254699	-21.583701	C	1	YLD124.LOD1	-0.278193
	8	C	-20.616229	-31.603768	-21.833962	C	1	YLD124.LOD1	-0.102205
	9	C	-19.925120	-32.266708	-22.871380	C	1	YLD124.LOD1	0.126725
	10	C	-19.049684	-31.473980	-23.641790	C	1	YLD124.LOD1	-0.148338
	11	C	-18.867436	-30.121608	-23.405923	C	1	YLD124.LOD1	-0.248652
	12	H	-21.016757	-29.810097	-20.777125	H	1	YLD124.LOD1	0.176041
	13	H	-21.309391	-32.156075	-21.206334	H	1	YLD124.LOD1	0.098595
	14	H	-18.498300	-31.938561	-24.456496	H	1	YLD124.LOD1	0.105176
	15	H	-18.186556	-29.575228	-24.046614	H	1	YLD124.LOD1	0.157607
	16	C	-20.999618	-35.973806	-22.873251	C	1	YLD124.LOD1	0.13089
	17	C	-21.821079	-36.771827	-22.109498	C	1	YLD124.LOD1	-0.298955
	18	C	-20.230829	-36.581835	-24.027661	C	1	YLD124.LOD1	0.000678
	19	H	-22.373324	-36.313135	-21.290644	H	1	YLD124.LOD1	0.128536
	20	C	-20.856532	-37.882755	-24.583244	C	1	YLD124.LOD1	0.312314
	21	H	-20.138575	-35.854914	-24.843348	H	1	YLD124.LOD1	0.009572
	22	C	-21.172469	-38.826218	-23.399078	C	1	YLD124.LOD1	0.132423
	23	H	-20.223002	-39.152148	-22.946632	H	1	YLD124.LOD1	-0.011706
	24	C	-22.006162	-38.170932	-22.318699	C	1	YLD124.LOD1	0.094029
	25	C	-22.900159	-38.736088	-21.462643	C	1	YLD124.LOD1	-0.194272
	26	H	-23.421195	-38.156231	-20.700968	H	1	YLD124.LOD1	0.118653
	27	C	-23.202844	-40.114931	-21.526592	C	1	YLD124.LOD1	0.029031
	28	C	-24.127473	-40.721196	-20.700783	C	1	YLD124.LOD1	-0.298661
	29	H	-22.690116	-40.717982	-22.266795	H	1	YLD124.LOD1	0.063317
	30	C	-24.520319	-42.077003	-20.722484	C	1	YLD124.LOD1	0.24754
	31	C	-25.520528	-42.643055	-19.939910	C	1	YLD124.LOD1	-0.281071
	32	C	-23.962450	-43.198125	-21.603816	C	1	YLD124.LOD1	-0.098074
	33	C	-25.668897	-44.030442	-20.289083	C	1	YLD124.LOD1	0.526995
	34	C	-26.269219	-41.915857	-18.980159	C	1	YLD124.LOD1	0.389724
	35	O	-24.806119	-44.339105	-21.287581	O	1	YLD124.LOD1	-0.351072
	36	C	-22.480203	-43.725025	-21.184917	C	1	YLD124.LOD1	0.617997
	37	C	-23.993260	-43.017207	-23.156673	C	1	YLD124.LOD1	0.253109
	38	C	-26.508551	-45.015309	-19.817831	C	1	YLD124.LOD1	-0.451385
	39	N	-26.833153	-41.236103	-18.220915	N	1	YLD124.LOD1	-0.428829
	40	F	-22.500073	-43.938351	-19.860578	F	1	YLD124.LOD1	-0.200469
	41	F	-22.076571	-44.859744	-21.777987	F	1	YLD124.LOD1	-0.158364
	42	F	-21.550897	-42.776048	-21.435740	F	1	YLD124.LOD1	-0.193377
	43	C	-24.423769	-41.739485	-23.544164	C	1	YLD124.LOD1	-0.158716
	44	C	-23.713709	-43.967069	-24.147280	C	1	YLD124.LOD1	-0.162688
	45	C	-27.457183	-44.778239	-18.781651	C	1	YLD124.LOD1	0.447489
	46	C	-26.446634	-46.329277	-20.370298	C	1	YLD124.LOD1	0.491336
	47	H	-24.652027	-40.994841	-22.787448	H	1	YLD124.LOD1	0.085247
	48	C	-24.565033	-41.413661	-24.889950	C	1	YLD124.LOD1	-0.074329
	49	C	-23.847450	-43.633684	-25.497378	C	1	YLD124.LOD1	-0.055824
	50	H	-23.397414	-44.968764	-23.886951	H	1	YLD124.LOD1	0.099228
	51	N	-28.246129	-44.628152	-17.938097	N	1	YLD124.LOD1	-0.454587
	52	N	-26.408590	-47.405389	-20.813651	N	1	YLD124.LOD1	-0.481156
	53	H	-24.902992	-40.419830	-25.168966	H	1	YLD124.LOD1	0.111202
	54	C	-24.272198	-42.360798	-25.873637	C	1	YLD124.LOD1	-0.106678
	55	H	-23.627980	-44.382388	-26.253405	H	1	YLD124.LOD1	0.095951
	56	H	-24.380419	-42.108522	-26.924821	H	1	YLD124.LOD1	0.103827
	57	H	-24.642508	-40.101798	-19.968496	H	1	YLD124.LOD1	0.159396
	58	H	-21.657904	-39.731112	-23.778913	H	1	YLD124.LOD1	-0.052081
	59	H	-19.203011	-36.790321	-23.692101	H	1	YLD124.LOD1	-0.003289
	60	C	-20.122922	-27.445134	-21.097985	C	1	YLD124.LOD1	0.198954
	61	C	-18.519591	-27.258433	-22.858746	C	1	YLD124.LOD1	0.115128
	62	C	-19.006796	-26.088423	-23.523509	C	1	YLD124.LOD1	0.306486
	63	C	-21.514320	-27.281101	-21.349703	C	1	YLD124.LOD1	0.28632
	64	O	-21.826700	-27.680900	-22.597600	O	1	YLD124.LOD1	-0.606883
	65	O	-18.891900	-24.943600	-22.822700	O	1	YLD124.LOD1	-0.600198
	66	C	-19.495439	-23.000942	-24.793612	C	1	YLD124.LOD1	0.267162
	67	C	-24.058536	-26.397492	-24.090442	C	1	YLD124.LOD1	0.369124
	68	C	-25.401307	-26.713215	-24.786545	C	1	YLD124.LOD1	-0.324271
	69	H	-26.152861	-27.093225	-24.083295	H	1	YLD124.LOD1	0.053925
	70	H	-25.816062	-25.803071	-25.243189	H	1	YLD124.LOD1	0.070181
	71	H	-25.287537	-27.453511	-25.587695	H	1	YLD124.LOD1	0.052098
	72	C	-19.082128	-21.638267	-25.392555	C	1	YLD124.LOD1	-0.316887
	73	H	-19.759502	-21.363963	-26.213896	H	1	YLD124.LOD1	0.07213
	74	H	-19.127375	-20.829738	-24.652292	H	1	YLD124.LOD1	0.059956
	75	H	-18.065669	-21.658720	-25.804927	H	1	YLD124.LOD1	0.057948
	76	C	-23.068565	-25.836720	-25.134264	C	1	YLD124.LOD1	-0.260833
	77	H	-22.094355	-25.606142	-24.687255	H	1	YLD124.LOD1	0.041714
	78	H	-22.897953	-26.542007	-25.956272	H	1	YLD124.LOD1	0.041636
	79	H	-23.460141	-24.908910	-25.575978	H	1	YLD124.LOD1	0.048242
	80	C	-24.301678	-25.324615	-23.006867	C	1	YLD124.LOD1	-0.256632
	81	H	-24.736569	-24.419699	-23.455630	H	1	YLD124.LOD1	0.046696
	82	H	-24.997672	-25.667328	-22.231318	H	1	YLD124.LOD1	0.030906
	83	H	-23.370210	-25.022465	-22.513046	H	1	YLD124.LOD1	0.051975
	84	C	-19.435543	-24.078082	-25.898563	C	1	YLD124.LOD1	-0.203727
	85	H	-18.431787	-24.163644	-26.332838	H	1	YLD124.LOD1	0.027457
	86	H	-19.721645	-25.064595	-25.517274	H	1	YLD124.LOD1	0.031775
	87	H	-20.123841	-23.823002	-26.717162	H	1	YLD124.LOD1	0.046776
	88	C	-20.943712	-22.903319	-24.266558	C	1	YLD124.LOD1	-0.249027
	89	H	-21.049222	-22.124538	-23.501138	H	1	YLD124.LOD1	0.037596
	90	H	-21.631423	-22.649263	-25.086025	H	1	YLD124.LOD1	0.055765
	91	H	-21.279606	-23.850636	-23.830462	H	1	YLD124.LOD1	0.04836
	92	C	-18.353205	-22.239325	-21.994602	C	1	YLD124.LOD1	-0.409962
	93	H	-19.371686	-22.096436	-21.616395	H	1	YLD124.LOD1	0.090944
	94	H	-17.726844	-22.556340	-21.151749	H	1	YLD124.LOD1	0.090896
	95	H	-17.979411	-21.261688	-22.322549	H	1	YLD124.LOD1	0.069902
	96	C	-16.570485	-23.647786	-23.929720	C	1	YLD124.LOD1	-0.458602
	97	H	-15.913155	-23.963990	-23.110486	H	1	YLD124.LOD1	0.097974
	98	H	-16.485680	-24.391530	-24.729929	H	1	YLD124.LOD1	0.103309
	99	H	-16.173890	-22.699548	-24.312613	H	1	YLD124.LOD1	0.085827
	100	C	-22.917021	-29.237753	-24.611456	C	1	YLD124.LOD1	-0.493974
	101	H	-22.144859	-28.870354	-25.296284	H	1	YLD124.LOD1	0.11158
	102	H	-22.537400	-30.155999	-24.148692	H	1	YLD124.LOD1	0.113577
	103	H	-23.796485	-29.504804	-25.208803	H	1	YLD124.LOD1	0.09477
	104	C	-24.462990	-28.721258	-22.093374	C	1	YLD124.LOD1	-0.483575
	105	H	-24.030912	-29.623928	-21.644443	H	1	YLD124.LOD1	0.116965
	106	H	-24.708167	-28.029667	-21.279382	H	1	YLD124.LOD1	0.100121
	107	H	-25.407448	-29.015057	-22.566809	H	1	YLD124.LOD1	0.088084
	108	Si	-23.312700	-28.002800	-23.327900	Si	1	YLD124.LOD1	0.763339
	109	Si	-18.302900	-23.457500	-23.362900	Si	1	YLD124.LOD1	0.748472
	110	H	-22.087161	-27.870246	-20.618552	H	1	YLD124.LOD1	-0.009815
	111	H	-17.755768	-26.857070	-22.186688	H	1	YLD124.LOD1	0.057511
	112	H	-18.528237	-25.970540	-24.506356	H	1	YLD124.LOD1	-0.045737
	113	H	-20.071332	-26.305375	-23.698203	H	1	YLD124.LOD1	-0.011652
	114	H	-17.992700	-27.890766	-23.581016	H	1	YLD124.LOD1	0.023801
	115	H	-19.996355	-27.987579	-20.155070	H	1	YLD124.LOD1	-0.001966
	116	H	-19.686388	-26.454680	-20.942800	H	1	YLD124.LOD1	0.031172
	117	H	-21.799027	-26.228101	-21.217473	H	1	YLD124.LOD1	-0.066029
	118	C	-22.132284	-37.507572	-25.329200	C	1	YLD124.LOD1	-0.185058
	119	H	-21.909829	-36.862450	-26.187639	H	1	YLD124.LOD1	0.04722
	120	H	-22.586635	-38.428546	-25.713713	H	1	YLD124.LOD1	0.027573
	121	H	-22.878811	-36.998744	-24.711490	H	1	YLD124.LOD1	0.00699
	122	C	-19.839675	-38.510516	-25.479176	C	1	YLD124.LOD1	-0.347891
	123	H	-19.578998	-37.857177	-26.320704	H	1	YLD124.LOD1	0.075067
	124	H	-18.911724	-38.768681	-24.954383	H	1	YLD124.LOD1	0.071859
	125	H	-20.259093	-39.434898	-25.894306	H	1	YLD124.LOD1	0.077505
	126	C	-30.281186	-14.783997	-24.248457	C	2	YLD124.LOD1	-0.158041
	127	C	-30.260733	-14.365980	-25.546115	C	2	YLD124.LOD1	-0.174247
	128	H	-29.393500	-14.603948	-26.160099	H	2	YLD124.LOD1	0.11023
	129	H	-31.146412	-14.528809	-23.638847	H	2	YLD124.LOD1	0.116594
	130	N	-26.367680	-17.773191	-21.364669	N	2	YLD124.LOD1	-0.477879
	131	C	-27.318460	-17.062235	-22.077484	C	2	YLD124.LOD1	0.383639
	132	C	-27.124131	-16.723042	-23.443890	C	2	YLD124.LOD1	-0.278193
	133	C	-28.061709	-15.988900	-24.146122	C	2	YLD124.LOD1	-0.102205
	134	C	-29.263664	-15.544336	-23.553653	C	2	YLD124.LOD1	0.126725
	135	C	-29.456434	-15.891930	-22.200747	C	2	YLD124.LOD1	-0.148338
	136	C	-28.528717	-16.626357	-21.481222	C	2	YLD124.LOD1	-0.248652
	137	H	-26.228693	-17.038515	-23.964611	H	2	YLD124.LOD1	0.176041
	138	H	-27.854001	-15.758786	-25.186957	H	2	YLD124.LOD1	0.098595
	139	H	-30.370128	-15.576595	-21.701415	H	2	YLD124.LOD1	0.105176
	140	H	-28.751122	-16.864975	-20.448647	H	2	YLD124.LOD1	0.157607
	141	C	-31.285328	-13.607490	-26.210460	C	2	YLD124.LOD1	0.13089
	142	C	-31.098808	-13.226997	-27.520189	C	2	YLD124.LOD1	-0.298955
	143	C	-32.553713	-13.202968	-25.488683	C	2	YLD124.LOD1	0.000678
	144	H	-30.184784	-13.537056	-28.024488	H	2	YLD124.LOD1	0.128536
	145	C	-33.742242	-12.897662	-26.430360	C	2	YLD124.LOD1	0.312314
	146	H	-32.851726	-13.987001	-24.782461	H	2	YLD124.LOD1	0.009572
	147	C	-33.257395	-11.944828	-27.548044	C	2	YLD124.LOD1	0.132423
	148	H	-33.010138	-10.971285	-27.096930	H	2	YLD124.LOD1	-0.011706
	149	C	-32.029021	-12.450887	-28.273762	C	2	YLD124.LOD1	0.094029
	150	C	-31.643298	-12.237284	-29.561139	C	2	YLD124.LOD1	-0.194272
	151	H	-30.711724	-12.636395	-29.962066	H	2	YLD124.LOD1	0.118653
	152	C	-32.444753	-11.485381	-30.449524	C	2	YLD124.LOD1	0.029031
	153	C	-32.107762	-11.273670	-31.770914	C	2	YLD124.LOD1	-0.298661
	154	H	-33.370885	-11.066295	-30.073884	H	2	YLD124.LOD1	0.063317
	155	C	-32.864906	-10.573830	-32.735264	C	2	YLD124.LOD1	0.24754
	156	C	-32.546091	-10.452477	-34.083182	C	2	YLD124.LOD1	-0.281071
	157	C	-34.184656	-9.826140	-32.525266	C	2	YLD124.LOD1	-0.098074
	158	C	-33.586848	-9.720083	-34.753407	C	2	YLD124.LOD1	0.526995
	159	C	-31.377852	-11.007531	-34.664224	C	2	YLD124.LOD1	0.389724
	160	O	-34.560056	-9.403928	-33.864830	O	2	YLD124.LOD1	-0.351072
	161	C	-34.051169	-8.411332	-31.730864	C	2	YLD124.LOD1	0.617997
	162	C	-35.401646	-10.605723	-31.928375	C	2	YLD124.LOD1	0.253109
	163	C	-33.747858	-9.340404	-36.067554	C	2	YLD124.LOD1	-0.451385
	164	N	-30.396822	-11.502382	-35.050542	N	2	YLD124.LOD1	-0.428829
	165	F	-33.046563	-7.732745	-32.305375	F	2	YLD124.LOD1	-0.200469
	166	F	-35.140852	-7.627472	-31.750713	F	2	YLD124.LOD1	-0.158364
	167	F	-33.719363	-8.622771	-30.437698	F	2	YLD124.LOD1	-0.193377
	168	C	-35.026889	-11.781391	-31.260975	C	2	YLD124.LOD1	-0.158716
	169	C	-36.763665	-10.308959	-32.064479	C	2	YLD124.LOD1	-0.162688
	170	C	-32.784471	-9.642246	-37.072815	C	2	YLD124.LOD1	0.447489
	171	C	-34.912705	-8.617745	-36.463105	C	2	YLD124.LOD1	0.491336
	172	H	-33.974976	-12.029095	-31.154494	H	2	YLD124.LOD1	0.085247
	173	C	-35.988832	-12.638366	-30.734177	C	2	YLD124.LOD1	-0.074329
	174	C	-37.726290	-11.166525	-31.526213	C	2	YLD124.LOD1	-0.055824
	175	H	-37.091953	-9.421132	-32.589070	H	2	YLD124.LOD1	0.099228
	176	N	-32.023733	-9.868048	-37.925362	N	2	YLD124.LOD1	-0.454587
	177	N	-35.859511	-8.029671	-36.800380	N	2	YLD124.LOD1	-0.481156
	178	H	-35.677930	-13.545452	-30.223980	H	2	YLD124.LOD1	0.111202
	179	C	-37.345126	-12.330589	-30.861467	C	2	YLD124.LOD1	-0.106678
	180	H	-38.778663	-10.922611	-31.641616	H	2	YLD124.LOD1	0.095951
	181	H	-38.097880	-12.997226	-30.450006	H	2	YLD124.LOD1	0.103827
	182	H	-31.179697	-11.708713	-32.137786	H	2	YLD124.LOD1	0.159396
	183	H	-34.080565	-11.759472	-28.245748	H	2	YLD124.LOD1	-0.052081
	184	H	-32.339430	-12.312441	-24.877520	H	2	YLD124.LOD1	-0.003289
	185	C	-25.184010	-18.310550	-21.935310	C	2	YLD124.LOD1	0.198954
	186	C	-26.562438	-18.175577	-20.008236	C	2	YLD124.LOD1	0.115128
	187	C	-27.154710	-19.448262	-19.766659	C	2	YLD124.LOD1	0.306486
	188	C	-24.963629	-19.719669	-22.032576	C	2	YLD124.LOD1	0.28632
	189	O	-24.394000	-20.276000	-20.946000	O	2	YLD124.LOD1	-0.606883
	190	O	-27.704400	-19.944100	-20.892200	O	2	YLD124.LOD1	-0.600198
	191	C	-29.428053	-20.552202	-23.056143	C	2	YLD124.LOD1	0.267162
	192	C	-22.187304	-20.229304	-18.949699	C	2	YLD124.LOD1	0.369124
	193	C	-20.723144	-20.675519	-18.738981	C	2	YLD124.LOD1	-0.324271
	194	H	-20.036029	-20.185337	-19.439976	H	2	YLD124.LOD1	0.053925
	195	H	-20.389176	-20.416799	-17.723877	H	2	YLD124.LOD1	0.070181
	196	H	-20.600927	-21.759466	-18.852763	H	2	YLD124.LOD1	0.052098
	197	C	-30.876602	-20.911478	-23.454976	C	2	YLD124.LOD1	-0.316887
	198	H	-30.946778	-21.050824	-24.543249	H	2	YLD124.LOD1	0.07213
	199	H	-31.215767	-21.844047	-22.986961	H	2	YLD124.LOD1	0.059956
	200	H	-31.588434	-20.121994	-23.183558	H	2	YLD124.LOD1	0.057948
	201	C	-23.084044	-20.932210	-17.907656	C	2	YLD124.LOD1	-0.260833
	202	H	-24.137873	-20.653160	-18.024466	H	2	YLD124.LOD1	0.041714
	203	H	-23.019593	-22.024194	-17.982838	H	2	YLD124.LOD1	0.041636
	204	H	-22.777658	-20.656392	-16.888183	H	2	YLD124.LOD1	0.048242
	205	C	-22.276388	-18.702687	-18.735639	C	2	YLD124.LOD1	-0.256632
	206	H	-21.923130	-18.436559	-17.728775	H	2	YLD124.LOD1	0.046696
	207	H	-21.660078	-18.145784	-19.452127	H	2	YLD124.LOD1	0.030906
	208	H	-23.306442	-18.336187	-18.821981	H	2	YLD124.LOD1	0.051975
	209	C	-29.013945	-19.249589	-23.774787	C	2	YLD124.LOD1	-0.203727
	210	H	-29.676839	-18.413304	-23.520545	H	2	YLD124.LOD1	0.027457
	211	H	-27.989666	-18.955559	-23.520144	H	2	YLD124.LOD1	0.031775
	212	H	-29.062529	-19.383799	-24.864995	H	2	YLD124.LOD1	0.046776
	213	C	-28.484170	-21.691229	-23.499441	C	2	YLD124.LOD1	-0.249027
	214	H	-28.757842	-22.650645	-23.043236	H	2	YLD124.LOD1	0.037596
	215	H	-28.532610	-21.823999	-24.589873	H	2	YLD124.LOD1	0.055765
	216	H	-27.442411	-21.478551	-23.235015	H	2	YLD124.LOD1	0.04836
	217	C	-29.769591	-21.840286	-20.237605	C	2	YLD124.LOD1	-0.409962
	218	H	-29.158697	-22.693863	-20.552209	H	2	YLD124.LOD1	0.090944
	219	H	-29.630850	-21.712272	-19.157053	H	2	YLD124.LOD1	0.090896
	220	H	-30.821560	-22.106791	-20.396912	H	2	YLD124.LOD1	0.069902
	221	C	-30.382990	-18.937941	-20.565521	C	2	YLD124.LOD1	-0.458602
	222	H	-30.270535	-18.781184	-19.485709	H	2	YLD124.LOD1	0.097974
	223	H	-30.134413	-17.995349	-21.065932	H	2	YLD124.LOD1	0.103309
	224	H	-31.443976	-19.144489	-20.751787	H	2	YLD124.LOD1	0.085827
	225	C	-22.788965	-22.532610	-20.943338	C	2	YLD124.LOD1	-0.493974
	226	H	-23.497032	-23.020025	-20.264166	H	2	YLD124.LOD1	0.11158
	227	H	-23.088289	-22.783808	-21.967419	H	2	YLD124.LOD1	0.113577
	228	H	-21.799595	-22.970986	-20.768496	H	2	YLD124.LOD1	0.09477
	229	C	-21.734864	-19.927540	-21.992096	C	2	YLD124.LOD1	-0.483575
	230	H	-22.085748	-20.191639	-22.997170	H	2	YLD124.LOD1	0.116965
	231	H	-21.723182	-18.834042	-21.920561	H	2	YLD124.LOD1	0.100121
	232	H	-20.696452	-20.270422	-21.910900	H	2	YLD124.LOD1	0.088084
	233	Si	-22.783900	-20.722400	-20.714900	Si	2	YLD124.LOD1	0.763339
	234	Si	-29.329000	-20.316500	-21.155500	Si	2	YLD124.LOD1	0.748472
	235	H	-25.967338	-20.144017	-22.181965	H	2	YLD124.LOD1	-0.009815
	236	H	-25.594697	-18.132985	-19.500452	H	2	YLD124.LOD1	0.057511
	237	H	-26.382186	-20.137791	-19.396984	H	2	YLD124.LOD1	-0.045737
	238	H	-27.926783	-19.368204	-18.986711	H	2	YLD124.LOD1	-0.011652
	239	H	-27.194019	-17.418817	-19.531214	H	2	YLD124.LOD1	0.023801
	240	H	-25.071775	-17.854194	-22.924500	H	2	YLD124.LOD1	-0.001966
	241	H	-24.336951	-17.961109	-21.338630	H	2	YLD124.LOD1	0.031172
	242	H	-24.369563	-19.960902	-22.924900	H	2	YLD124.LOD1	-0.066029
	243	C	-34.224560	-14.218793	-27.019436	C	2	YLD124.LOD1	-0.185058
	244	H	-34.597007	-14.886473	-26.233260	H	2	YLD124.LOD1	0.04722
	245	H	-35.058988	-14.005790	-27.698286	H	2	YLD124.LOD1	0.027573
	246	H	-33.461697	-14.761016	-27.586718	H	2	YLD124.LOD1	0.00699
	247	C	-34.792612	-12.226854	-25.607366	C	2	YLD124.LOD1	-0.347891
	248	H	-35.144832	-12.870689	-24.792265	H	2	YLD124.LOD1	0.075067
	249	H	-34.448969	-11.283470	-25.165679	H	2	YLD124.LOD1	0.071859
	250	H	-35.653309	-12.003343	-26.249218	H	2	YLD124.LOD1	0.077505
	251	C	-9.141233	21.297436	-19.117673	C	3	YLD124.LOD1	-0.158041
	252	C	-8.805147	20.097218	-19.670480	C	3	YLD124.LOD1	-0.174247
	253	H	-9.293059	19.790378	-20.594325	H	3	YLD124.LOD1	0.11023
	254	H	-8.658210	21.588745	-18.186442	H	3	YLD124.LOD1	0.116594
	255	N	-12.861522	25.204703	-20.977714	N	3	YLD124.LOD1	-0.477879
	256	C	-11.949139	24.257965	-20.543213	C	3	YLD124.LOD1	0.383639
	257	C	-11.722026	23.056227	-21.267180	C	3	YLD124.LOD1	-0.278193
	258	C	-10.831536	22.099341	-20.817134	C	3	YLD124.LOD1	-0.102205
	259	C	-10.093270	22.263144	-19.624872	C	3	YLD124.LOD1	0.126725
	260	C	-10.314627	23.461480	-18.915416	C	3	YLD124.LOD1	-0.148338
	261	C	-11.202476	24.431144	-19.350426	C	3	YLD124.LOD1	-0.248652
	262	H	-12.247686	22.867963	-22.194930	H	3	YLD124.LOD1	0.176041
	263	H	-10.704119	21.200620	-21.413372	H	3	YLD124.LOD1	0.098595
	264	H	-9.764928	23.636147	-17.992959	H	3	YLD124.LOD1	0.105176
	265	H	-11.311489	25.331156	-18.758219	H	3	YLD124.LOD1	0.157607
	266	C	-7.857277	19.154359	-19.142261	C	3	YLD124.LOD1	0.13089
	267	C	-7.654842	17.962643	-19.800886	C	3	YLD124.LOD1	-0.298955
	268	C	-7.095479	19.440526	-17.865087	C	3	YLD124.LOD1	0.000678
	269	H	-8.204478	17.780723	-20.723220	H	3	YLD124.LOD1	0.128536
	270	C	-5.778288	18.641485	-17.726844	C	3	YLD124.LOD1	0.312314
	271	H	-6.871275	20.511348	-17.792004	H	3	YLD124.LOD1	0.009572
	272	C	-6.066705	17.153039	-18.032667	C	3	YLD124.LOD1	0.132423
	273	H	-6.714321	16.750323	-17.238413	H	3	YLD124.LOD1	-0.011706
	274	C	-6.763809	16.939587	-19.359374	C	3	YLD124.LOD1	0.094029
	275	C	-6.701978	15.871166	-20.199843	C	3	YLD124.LOD1	-0.194272
	276	H	-7.280365	15.823771	-21.122385	H	3	YLD124.LOD1	0.118653
	277	C	-5.870661	14.764336	-19.915666	C	3	YLD124.LOD1	0.029031
	278	C	-5.752463	13.676731	-20.756857	C	3	YLD124.LOD1	-0.298661
	279	H	-5.293438	14.779530	-18.998583	H	3	YLD124.LOD1	0.063317
	280	C	-4.919164	12.552041	-20.573286	C	3	YLD124.LOD1	0.24754
	281	C	-4.750649	11.512145	-21.480740	C	3	YLD124.LOD1	-0.281071
	282	C	-4.020196	12.240280	-19.373479	C	3	YLD124.LOD1	-0.098074
	283	C	-3.779145	10.584967	-20.965668	C	3	YLD124.LOD1	0.526995
	284	C	-5.432948	11.437748	-22.721470	C	3	YLD124.LOD1	0.389724
	285	O	-3.316893	11.032163	-19.772774	O	3	YLD124.LOD1	-0.351072
	286	C	-4.809794	11.764903	-18.031507	C	3	YLD124.LOD1	0.617997
	287	C	-2.937447	13.288083	-18.955061	C	3	YLD124.LOD1	0.253109
	288	C	-3.264770	9.411961	-21.472164	C	3	YLD124.LOD1	-0.451385
	289	N	-6.034739	11.466291	-23.718251	N	3	YLD124.LOD1	-0.428829
	290	F	-5.683386	10.818020	-18.405710	F	3	YLD124.LOD1	-0.200469
	291	F	-4.043082	11.253981	-17.055110	F	3	YLD124.LOD1	-0.158364
	292	F	-5.514690	12.792013	-17.506867	F	3	YLD124.LOD1	-0.193377
	293	C	-2.915403	14.407129	-19.800822	C	3	YLD124.LOD1	-0.158716
	294	C	-2.005625	13.208659	-17.912426	C	3	YLD124.LOD1	-0.162688
	295	C	-3.680076	8.874289	-22.724442	C	3	YLD124.LOD1	0.447489
	296	C	-2.278917	8.689513	-20.736142	C	3	YLD124.LOD1	0.491336
	297	H	-3.626362	14.479178	-20.618477	H	3	YLD124.LOD1	0.085247
	298	C	-1.989615	15.428118	-19.606518	C	3	YLD124.LOD1	-0.074329
	299	C	-1.083958	14.239741	-17.714445	C	3	YLD124.LOD1	-0.055824
	300	H	-1.979435	12.352466	-17.251023	H	3	YLD124.LOD1	0.099228
	301	N	-3.990250	8.400025	-23.741993	N	3	YLD124.LOD1	-0.454587
	302	N	-1.472103	8.090889	-20.147306	N	3	YLD124.LOD1	-0.481156
	303	H	-1.986903	16.284499	-20.274627	H	3	YLD124.LOD1	0.111202
	304	C	-1.071406	15.349665	-18.557137	C	3	YLD124.LOD1	-0.106678
	305	H	-0.366916	14.162172	-16.901958	H	3	YLD124.LOD1	0.095951
	306	H	-0.348608	16.145916	-18.402575	H	3	YLD124.LOD1	0.103827
	307	H	-6.330239	13.678963	-21.679532	H	3	YLD124.LOD1	0.159396
	308	H	-5.130934	16.586888	-17.982060	H	3	YLD124.LOD1	-0.052081
	309	H	-7.748831	19.210315	-17.009160	H	3	YLD124.LOD1	-0.003289
	310	C	-13.550968	25.104765	-22.213859	C	3	YLD124.LOD1	0.198954
	311	C	-13.081944	26.449065	-20.311323	C	3	YLD124.LOD1	0.115128
	312	C	-12.478884	27.661348	-20.771167	C	3	YLD124.LOD1	0.306486
	313	C	-12.971351	25.735659	-23.350630	C	3	YLD124.LOD1	0.28632
	314	O	-11.744400	26.211300	-23.062100	O	3	YLD124.LOD1	-0.606883
	315	O	-11.210100	27.843200	-20.356400	O	3	YLD124.LOD1	-0.600198
	316	C	-10.664420	30.411069	-19.292902	C	3	YLD124.LOD1	0.267162
	317	C	-9.747511	27.602396	-24.774850	C	3	YLD124.LOD1	0.369124
	318	C	-8.383519	27.397210	-25.471053	C	3	YLD124.LOD1	-0.324271
	319	H	-8.423453	26.612343	-26.236683	H	3	YLD124.LOD1	0.053925
	320	H	-8.069741	28.323691	-25.973133	H	3	YLD124.LOD1	0.070181
	321	H	-7.592211	27.131398	-24.759717	H	3	YLD124.LOD1	0.052098
	322	C	-10.265521	31.193407	-18.021970	C	3	YLD124.LOD1	-0.316887
	323	H	-10.207990	32.269162	-18.241334	H	3	YLD124.LOD1	0.07213
	324	H	-10.994714	31.067034	-17.211993	H	3	YLD124.LOD1	0.059956
	325	H	-9.283478	30.888469	-17.639527	H	3	YLD124.LOD1	0.057948
	326	C	-9.619911	28.741811	-23.740671	C	3	YLD124.LOD1	-0.260833
	327	H	-10.564111	28.918140	-23.212029	H	3	YLD124.LOD1	0.041714
	328	H	-8.852987	28.526276	-22.987273	H	3	YLD124.LOD1	0.041636
	329	H	-9.335598	29.681201	-24.236641	H	3	YLD124.LOD1	0.048242
	330	C	-10.791092	28.008387	-25.838065	C	3	YLD124.LOD1	-0.256632
	331	H	-10.471191	28.923108	-26.358007	H	3	YLD124.LOD1	0.046696
	332	H	-10.929013	27.233605	-26.602280	H	3	YLD124.LOD1	0.030906
	333	H	-11.770552	28.218482	-25.391627	H	3	YLD124.LOD1	0.051975
	334	C	-9.609853	30.661639	-20.392828	C	3	YLD124.LOD1	-0.203727
	335	H	-8.606629	30.350179	-20.076636	H	3	YLD124.LOD1	0.027457
	336	H	-9.853027	30.123895	-21.315943	H	3	YLD124.LOD1	0.031775
	337	H	-9.557388	31.733208	-20.633479	H	3	YLD124.LOD1	0.046776
	338	C	-12.036322	30.917724	-19.788884	C	3	YLD124.LOD1	-0.249027
	339	H	-12.817387	30.795197	-19.028342	H	3	YLD124.LOD1	0.037596
	340	H	-11.982626	31.989102	-20.030304	H	3	YLD124.LOD1	0.055765
	341	H	-12.360347	30.387977	-20.691541	H	3	YLD124.LOD1	0.04836
	342	C	-12.024994	28.164147	-17.613812	C	3	YLD124.LOD1	-0.409962
	343	H	-13.011498	28.548178	-17.896819	H	3	YLD124.LOD1	0.090944
	344	H	-12.122711	27.083718	-17.451481	H	3	YLD124.LOD1	0.090896
	345	H	-11.757951	28.611033	-16.648398	H	3	YLD124.LOD1	0.069902
	346	C	-9.148111	27.856737	-18.345972	C	3	YLD124.LOD1	-0.458602
	347	H	-9.208464	26.775286	-18.172671	H	3	YLD124.LOD1	0.097974
	348	H	-8.364386	28.030662	-19.091765	H	3	YLD124.LOD1	0.103309
	349	H	-8.820553	28.315485	-17.405065	H	3	YLD124.LOD1	0.085827
	350	C	-9.106874	25.560119	-22.525422	C	3	YLD124.LOD1	-0.493974
	351	H	-9.088817	26.329385	-21.745609	H	3	YLD124.LOD1	0.11158
	352	H	-9.404237	24.617446	-22.051735	H	3	YLD124.LOD1	0.113577
	353	H	-8.083906	25.436747	-22.899471	H	3	YLD124.LOD1	0.09477
	354	C	-10.420285	24.598018	-25.044724	C	3	YLD124.LOD1	-0.483575
	355	H	-10.739477	23.684678	-24.528032	H	3	YLD124.LOD1	0.116965
	356	H	-11.136813	24.791710	-25.850989	H	3	YLD124.LOD1	0.100121
	357	H	-9.452440	24.383691	-25.513553	H	3	YLD124.LOD1	0.088084
	358	Si	-10.274700	25.990200	-23.859700	Si	3	YLD124.LOD1	0.763339
	359	Si	-10.760800	28.539400	-18.886400	Si	3	YLD124.LOD1	0.748472
	360	H	-12.904558	25.023151	-24.185910	H	3	YLD124.LOD1	-0.009815
	361	H	-14.162180	26.593299	-20.219309	H	3	YLD124.LOD1	0.057511
	362	H	-12.502771	27.586316	-21.867846	H	3	YLD124.LOD1	-0.045737
	363	H	-13.085687	28.533988	-20.486362	H	3	YLD124.LOD1	-0.011652
	364	H	-12.697713	26.341444	-19.291560	H	3	YLD124.LOD1	0.023801
	365	H	-13.659431	24.038256	-22.437795	H	3	YLD124.LOD1	-0.001966
	366	H	-14.563336	25.492443	-22.070815	H	3	YLD124.LOD1	0.031172
	367	H	-13.620207	26.561018	-23.674852	H	3	YLD124.LOD1	-0.066029
	368	C	-4.776840	19.212878	-18.724603	C	3	YLD124.LOD1	-0.185058
	369	H	-4.546635	20.259936	-18.493820	H	3	YLD124.LOD1	0.04722
	370	H	-3.845322	18.640594	-18.639494	H	3	YLD124.LOD1	0.027573
	371	H	-5.105849	19.163486	-19.767238	H	3	YLD124.LOD1	0.00699
	372	C	-5.319853	18.792938	-16.313538	C	3	YLD124.LOD1	-0.347891
	373	H	-5.124600	19.841645	-16.058466	H	3	YLD124.LOD1	0.075067
	374	H	-6.041885	18.399503	-15.587570	H	3	YLD124.LOD1	0.071859
	375	H	-4.381087	18.240315	-16.186833	H	3	YLD124.LOD1	0.077505
	376	C	23.497855	-23.409568	-13.329275	C	4	YLD124.LOD1	-0.158041
	377	C	22.256525	-23.207046	-12.802819	C	4	YLD124.LOD1	-0.174247
	378	H	21.454042	-23.891457	-13.073563	H	4	YLD124.LOD1	0.11023
	379	H	24.289998	-22.711494	-13.063636	H	4	YLD124.LOD1	0.116594
	380	N	25.279606	-27.504255	-16.882575	N	4	YLD124.LOD1	-0.477879
	381	C	24.841620	-26.524315	-16.007686	C	4	YLD124.LOD1	0.383639
	382	C	23.495619	-26.479836	-15.553610	C	4	YLD124.LOD1	-0.278193
	383	C	23.053132	-25.484400	-14.702460	C	4	YLD124.LOD1	-0.102205
	384	C	23.909168	-24.465964	-14.229868	C	4	YLD124.LOD1	0.126725
	385	C	25.245991	-24.520152	-14.675186	C	4	YLD124.LOD1	-0.148338
	386	C	25.707286	-25.509200	-15.527680	C	4	YLD124.LOD1	-0.248652
	387	H	22.785838	-27.234230	-15.869179	H	4	YLD124.LOD1	0.176041
	388	H	22.012169	-25.503006	-14.393454	H	4	YLD124.LOD1	0.098595
	389	H	25.945538	-23.759968	-14.334072	H	4	YLD124.LOD1	0.105176
	390	H	26.750379	-25.492231	-15.817994	H	4	YLD124.LOD1	0.157607
	391	C	21.874446	-22.145356	-11.912152	C	4	YLD124.LOD1	0.13089
	392	C	20.565478	-22.054232	-11.495914	C	4	YLD124.LOD1	-0.298955
	393	C	22.880834	-21.115824	-11.442422	C	4	YLD124.LOD1	0.000678
	394	H	19.859832	-22.810531	-11.836457	H	4	YLD124.LOD1	0.128536
	395	C	22.487699	-20.409066	-10.123897	C	4	YLD124.LOD1	0.312314
	396	H	23.865460	-21.581570	-11.316484	H	4	YLD124.LOD1	0.009572
	397	C	21.021049	-19.930913	-10.235673	C	4	YLD124.LOD1	0.132423
	398	H	20.967430	-19.137057	-10.996818	H	4	YLD124.LOD1	-0.011706
	399	C	20.062525	-21.031499	-10.637677	C	4	YLD124.LOD1	0.094029
	400	C	18.744526	-21.176573	-10.331811	C	4	YLD124.LOD1	-0.194272
	401	H	18.148482	-22.006842	-10.710289	H	4	YLD124.LOD1	0.118653
	402	C	18.081955	-20.250901	-9.494525	C	4	YLD124.LOD1	0.029031
	403	C	16.756594	-20.379120	-9.131986	C	4	YLD124.LOD1	-0.298661
	404	H	18.647686	-19.408638	-9.113734	H	4	YLD124.LOD1	0.063317
	405	C	16.028980	-19.528774	-8.271461	C	4	YLD124.LOD1	0.24754
	406	C	14.719485	-19.731055	-7.850085	C	4	YLD124.LOD1	-0.281071
	407	C	16.510719	-18.235275	-7.608387	C	4	YLD124.LOD1	-0.098074
	408	C	14.348100	-18.685481	-6.934866	C	4	YLD124.LOD1	0.526995
	409	C	13.924600	-20.829487	-8.264913	C	4	YLD124.LOD1	0.389724
	410	O	15.399942	-17.850495	-6.752970	O	4	YLD124.LOD1	-0.351072
	411	C	16.644929	-16.960262	-8.611788	C	4	YLD124.LOD1	0.617997
	412	C	17.790096	-18.284037	-6.710535	C	4	YLD124.LOD1	0.253109
	413	C	13.182498	-18.434428	-6.245369	C	4	YLD124.LOD1	-0.451385
	414	N	13.352273	-21.764996	-8.657090	N	4	YLD124.LOD1	-0.428829
	415	F	15.508213	-16.899041	-9.321651	F	4	YLD124.LOD1	-0.200469
	416	F	16.823925	-15.769152	-8.018949	F	4	YLD124.LOD1	-0.158364
	417	F	17.663943	-17.145332	-9.480372	F	4	YLD124.LOD1	-0.193377
	418	C	18.611113	-19.388887	-6.981274	C	4	YLD124.LOD1	-0.158716
	419	C	18.131480	-17.429011	-5.655037	C	4	YLD124.LOD1	-0.162688
	420	C	12.031820	-19.266228	-6.362939	C	4	YLD124.LOD1	0.447489
	421	C	13.097871	-17.307053	-5.375065	C	4	YLD124.LOD1	0.491336
	422	H	18.355124	-20.065329	-7.791280	H	4	YLD124.LOD1	0.085247
	423	C	19.751592	-19.631487	-6.221200	C	4	YLD124.LOD1	-0.074329
	424	C	19.282087	-17.670123	-4.900211	C	4	YLD124.LOD1	-0.055824
	425	H	17.512793	-16.577303	-5.403985	H	4	YLD124.LOD1	0.099228
	426	N	11.069539	-19.919058	-6.429060	N	4	YLD124.LOD1	-0.454587
	427	N	13.015593	-16.391985	-4.659588	N	4	YLD124.LOD1	-0.481156
	428	H	20.372115	-20.494443	-6.444858	H	4	YLD124.LOD1	0.111202
	429	C	20.094150	-18.768040	-5.178331	C	4	YLD124.LOD1	-0.106678
	430	H	19.532102	-16.998133	-4.083986	H	4	YLD124.LOD1	0.095951
	431	H	20.984561	-18.954499	-4.584408	H	4	YLD124.LOD1	0.103827
	432	H	16.202809	-21.235239	-9.513486	H	4	YLD124.LOD1	0.159396
	433	H	20.719299	-19.469761	-9.289606	H	4	YLD124.LOD1	-0.052081
	434	H	23.003799	-20.360441	-12.234100	H	4	YLD124.LOD1	-0.003289
	435	C	24.461687	-28.585275	-17.301521	C	4	YLD124.LOD1	0.198954
	436	C	26.642712	-27.585432	-17.298732	C	4	YLD124.LOD1	0.115128
	437	C	27.584693	-28.115525	-16.371259	C	4	YLD124.LOD1	0.306486
	438	C	24.520564	-29.843390	-16.628233	C	4	YLD124.LOD1	0.28632
	439	O	25.623500	-30.562100	-16.913800	O	4	YLD124.LOD1	-0.606883
	440	O	27.039500	-28.227600	-15.144400	O	4	YLD124.LOD1	-0.600198
	441	C	26.234131	-28.828677	-12.496184	C	4	YLD124.LOD1	0.267162
	442	C	27.614702	-31.625983	-18.852937	C	4	YLD124.LOD1	0.369124
	443	C	27.799031	-32.703336	-19.945002	C	4	YLD124.LOD1	-0.324271
	444	H	27.122624	-32.550835	-20.795306	H	4	YLD124.LOD1	0.053925
	445	H	28.825346	-32.674258	-20.338372	H	4	YLD124.LOD1	0.070181
	446	H	27.629485	-33.715965	-19.559436	H	4	YLD124.LOD1	0.052098
	447	C	26.464072	-29.762122	-11.286950	C	4	YLD124.LOD1	-0.316887
	448	H	25.787331	-29.490508	-10.464194	H	4	YLD124.LOD1	0.07213
	449	H	26.269024	-30.813519	-11.532465	H	4	YLD124.LOD1	0.059956
	450	H	27.488153	-29.692760	-10.899516	H	4	YLD124.LOD1	0.057948
	451	C	28.621244	-31.887003	-17.711528	C	4	YLD124.LOD1	-0.260833
	452	H	28.521219	-31.150574	-16.905467	H	4	YLD124.LOD1	0.041714
	453	H	28.489961	-32.882068	-17.270114	H	4	YLD124.LOD1	0.041636
	454	H	29.652860	-31.830306	-18.088128	H	4	YLD124.LOD1	0.048242
	455	C	27.907047	-30.240408	-19.468595	C	4	YLD124.LOD1	-0.256632
	456	H	28.925470	-30.213221	-19.882678	H	4	YLD124.LOD1	0.046696
	457	H	27.218747	-29.995501	-20.286885	H	4	YLD124.LOD1	0.030906
	458	H	27.841887	-29.438703	-18.723068	H	4	YLD124.LOD1	0.051975
	459	C	26.498420	-27.369297	-12.065956	C	4	YLD124.LOD1	-0.203727
	460	H	27.520525	-27.231444	-11.692141	H	4	YLD124.LOD1	0.027457
	461	H	26.347035	-26.669655	-12.895431	H	4	YLD124.LOD1	0.031775
	462	H	25.813635	-27.080936	-11.255498	H	4	YLD124.LOD1	0.046776
	463	C	24.767264	-28.956305	-12.961830	C	4	YLD124.LOD1	-0.249027
	464	H	24.516080	-29.985639	-13.246221	H	4	YLD124.LOD1	0.037596
	465	H	24.083247	-28.666726	-12.151102	H	4	YLD124.LOD1	0.055765
	466	H	24.558628	-28.309868	-13.821484	H	4	YLD124.LOD1	0.04836
	467	C	27.135815	-31.033599	-14.507407	C	4	YLD124.LOD1	-0.409962
	468	H	26.092907	-31.190689	-14.804773	H	4	YLD124.LOD1	0.090944
	469	H	27.767632	-31.271623	-15.371918	H	4	YLD124.LOD1	0.090896
	470	H	27.373001	-31.765064	-13.725265	H	4	YLD124.LOD1	0.069902
	471	C	29.185330	-29.137665	-13.453023	C	4	YLD124.LOD1	-0.458602
	472	H	29.848583	-29.369350	-14.295419	H	4	YLD124.LOD1	0.097974
	473	H	29.412258	-28.118083	-13.121910	H	4	YLD124.LOD1	0.103309
	474	H	29.451646	-29.820220	-12.636785	H	4	YLD124.LOD1	0.085827
	475	C	25.506764	-33.300989	-17.306107	C	4	YLD124.LOD1	-0.493974
	476	H	26.161565	-33.440407	-16.438925	H	4	YLD124.LOD1	0.11158
	477	H	24.471795	-33.338862	-16.947161	H	4	YLD124.LOD1	0.113577
	478	H	25.656703	-34.151943	-17.980638	H	4	YLD124.LOD1	0.09477
	479	C	24.590784	-31.423775	-19.458975	C	4	YLD124.LOD1	-0.483575
	480	H	23.574246	-31.450330	-19.047892	H	4	YLD124.LOD1	0.116965
	481	H	24.718339	-30.462117	-19.968814	H	4	YLD124.LOD1	0.100121
	482	H	24.651995	-32.208116	-20.222862	H	4	YLD124.LOD1	0.088084
	483	Si	25.827900	-31.707500	-18.135100	Si	4	YLD124.LOD1	0.763339
	484	Si	27.422200	-29.322000	-13.918500	Si	4	YLD124.LOD1	0.748472
	485	H	24.509945	-29.592384	-15.557391	H	4	YLD124.LOD1	-0.009815
	486	H	26.683621	-28.175585	-18.218638	H	4	YLD124.LOD1	0.057511
	487	H	27.917284	-29.103688	-16.720288	H	4	YLD124.LOD1	-0.045737
	488	H	28.472402	-27.467362	-16.319476	H	4	YLD124.LOD1	-0.011652
	489	H	26.968081	-26.574731	-17.566594	H	4	YLD124.LOD1	0.023801
	490	H	23.428945	-28.221353	-17.320444	H	4	YLD124.LOD1	-0.001966
	491	H	24.720443	-28.827189	-18.336010	H	4	YLD124.LOD1	0.031172
	492	H	23.624527	-30.445602	-16.832703	H	4	YLD124.LOD1	-0.066029
	493	C	22.641839	-21.415525	-8.988944	C	4	YLD124.LOD1	-0.185058
	494	H	23.685886	-21.735059	-8.886726	H	4	YLD124.LOD1	0.04722
	495	H	22.351371	-20.922632	-8.053442	H	4	YLD124.LOD1	0.027573
	496	H	22.025440	-22.313055	-9.099695	H	4	YLD124.LOD1	0.00699
	497	C	23.397181	-19.234779	-9.967849	C	4	YLD124.LOD1	-0.347891
	498	H	24.448966	-19.539308	-9.904737	H	4	YLD124.LOD1	0.075067
	499	H	23.305096	-18.513223	-10.788840	H	4	YLD124.LOD1	0.071859
	500	H	23.145385	-18.716062	-9.034972	H	4	YLD124.LOD1	0.077505
	501	C	-5.153747	-28.612065	13.505130	C	5	YLD124.LOD1	-0.158041
	502	C	-6.234805	-29.365744	13.854918	C	5	YLD124.LOD1	-0.174247
	503	H	-7.042791	-29.489367	13.135491	H	5	YLD124.LOD1	0.11023
	504	H	-4.357736	-28.482820	14.236584	H	5	YLD124.LOD1	0.116594
	505	N	-4.097897	-25.883678	8.605321	N	5	YLD124.LOD1	-0.477879
	506	C	-4.355713	-26.562448	9.784451	C	5	YLD124.LOD1	0.383639
	507	C	-5.547778	-27.315100	9.964390	C	5	YLD124.LOD1	-0.278193
	508	C	-5.816630	-27.968909	11.152412	C	5	YLD124.LOD1	-0.102205
	509	C	-4.924142	-27.935439	12.245893	C	5	YLD124.LOD1	0.126725
	510	C	-3.738286	-27.195748	12.058974	C	5	YLD124.LOD1	-0.148338
	511	C	-3.451902	-26.534311	10.876501	C	5	YLD124.LOD1	-0.248652
	512	H	-6.273554	-27.391218	9.164429	H	5	YLD124.LOD1	0.176041
	513	H	-6.746240	-28.525075	11.229471	H	5	YLD124.LOD1	0.098595
	514	H	-3.016384	-27.144596	12.871284	H	5	YLD124.LOD1	0.105176
	515	H	-2.515517	-25.995474	10.802665	H	5	YLD124.LOD1	0.157607
	516	C	-6.438859	-30.024374	15.116277	C	5	YLD124.LOD1	0.13089
	517	C	-7.606881	-30.720505	15.330945	C	5	YLD124.LOD1	-0.298955
	518	C	-5.402194	-29.947441	16.217553	C	5	YLD124.LOD1	0.000678
	519	H	-8.334743	-30.772743	14.522625	H	5	YLD124.LOD1	0.128536
	520	C	-5.492609	-31.098440	17.246919	C	5	YLD124.LOD1	0.312314
	521	H	-4.394298	-29.934546	15.785989	H	5	YLD124.LOD1	0.009572
	522	C	-6.963983	-31.243160	17.701124	C	5	YLD124.LOD1	0.132423
	523	H	-7.245456	-30.344530	18.271793	H	5	YLD124.LOD1	-0.011706
	524	C	-7.933890	-31.389274	16.548043	C	5	YLD124.LOD1	0.094029
	525	C	-9.125692	-32.044539	16.506235	C	5	YLD124.LOD1	-0.194272
	526	H	-9.753084	-32.052447	15.615068	H	5	YLD124.LOD1	0.118653
	527	C	-9.607287	-32.758705	17.626481	C	5	YLD124.LOD1	0.029031
	528	C	-10.793109	-33.464511	17.615641	C	5	YLD124.LOD1	-0.298661
	529	H	-9.009269	-32.757569	18.530269	H	5	YLD124.LOD1	0.063317
	530	C	-11.327976	-34.235922	18.670087	C	5	YLD124.LOD1	0.24754
	531	C	-12.480044	-35.011456	18.602701	C	5	YLD124.LOD1	-0.281071
	532	C	-10.764676	-34.405035	20.083938	C	5	YLD124.LOD1	-0.098074
	533	C	-12.666834	-35.694405	19.854687	C	5	YLD124.LOD1	0.526995
	534	C	-13.294925	-35.103712	17.446011	C	5	YLD124.LOD1	0.389724
	535	O	-11.647400	-35.386626	20.692949	O	5	YLD124.LOD1	-0.351072
	536	C	-10.949287	-33.110658	21.053872	C	5	YLD124.LOD1	0.617997
	537	C	-9.302073	-34.932542	20.250500	C	5	YLD124.LOD1	0.253109
	538	C	-13.636764	-36.568870	20.292418	C	5	YLD124.LOD1	-0.451385
	539	N	-13.897315	-35.119550	16.449309	N	5	YLD124.LOD1	-0.428829
	540	F	-12.227984	-32.719440	20.945899	F	5	YLD124.LOD1	-0.200469
	541	F	-10.690974	-33.316644	22.355057	F	5	YLD124.LOD1	-0.158364
	542	F	-10.168942	-32.089259	20.635678	F	5	YLD124.LOD1	-0.193377
	543	C	-8.474436	-34.632662	19.158186	C	5	YLD124.LOD1	-0.158716
	544	C	-8.794139	-35.725004	21.287657	C	5	YLD124.LOD1	-0.162688
	545	C	-14.736054	-36.960863	19.475305	C	5	YLD124.LOD1	0.447489
	546	C	-13.561483	-37.116689	21.607634	C	5	YLD124.LOD1	0.491336
	547	H	-8.856605	-34.026060	18.342591	H	5	YLD124.LOD1	0.085247
	548	C	-7.166673	-35.106131	19.104870	C	5	YLD124.LOD1	-0.074329
	549	C	-7.477998	-36.190664	21.235424	C	5	YLD124.LOD1	-0.055824
	550	H	-9.408157	-35.993022	22.137572	H	5	YLD124.LOD1	0.099228
	551	N	-15.649602	-37.307883	18.841624	N	5	YLD124.LOD1	-0.454587
	552	N	-13.511280	-37.573242	22.677711	N	5	YLD124.LOD1	-0.481156
	553	H	-6.543227	-34.865519	18.248608	H	5	YLD124.LOD1	0.111202
	554	C	-6.661426	-35.884956	20.148239	C	5	YLD124.LOD1	-0.106678
	555	H	-7.099690	-36.805397	22.047391	H	5	YLD124.LOD1	0.095951
	556	H	-5.640555	-36.254649	20.109601	H	5	YLD124.LOD1	0.103827
	557	H	-11.379027	-33.465484	16.698112	H	5	YLD124.LOD1	0.159396
	558	H	-7.045506	-32.085657	18.395608	H	5	YLD124.LOD1	-0.052081
	559	H	-5.518396	-28.985467	16.740602	H	5	YLD124.LOD1	-0.003289
	560	C	-4.929072	-25.963492	7.457722	C	5	YLD124.LOD1	0.198954
	561	C	-2.876375	-25.171701	8.409809	C	5	YLD124.LOD1	0.115128
	562	C	-1.646308	-25.892722	8.332319	C	5	YLD124.LOD1	0.306486
	563	C	-4.539818	-26.841815	6.407128	C	5	YLD124.LOD1	0.28632
	564	O	-3.561960	-27.674700	6.812970	O	5	YLD124.LOD1	-0.606883
	565	O	-1.333610	-26.530500	9.477050	O	5	YLD124.LOD1	-0.600198
	566	C	1.026034	-25.483342	10.642574	C	5	YLD124.LOD1	0.267162
	567	C	-3.887406	-30.289634	5.429763	C	5	YLD124.LOD1	0.369124
	568	C	-3.903722	-31.812854	5.688234	C	5	YLD124.LOD1	-0.324271
	569	H	-4.728494	-32.112139	6.347005	H	5	YLD124.LOD1	0.053925
	570	H	-4.031181	-32.357744	4.741790	H	5	YLD124.LOD1	0.070181
	571	H	-2.968853	-32.165393	6.140517	H	5	YLD124.LOD1	0.052098
	572	C	2.435070	-25.830727	11.172084	C	5	YLD124.LOD1	-0.316887
	573	H	2.934390	-24.924637	11.544050	H	5	YLD124.LOD1	0.07213
	574	H	2.400300	-26.545430	12.003798	H	5	YLD124.LOD1	0.059956
	575	H	3.077333	-26.256295	10.391028	H	5	YLD124.LOD1	0.057948
	576	C	-2.725373	-29.952969	4.470382	C	5	YLD124.LOD1	-0.260833
	577	H	-2.667309	-28.877679	4.264356	H	5	YLD124.LOD1	0.041714
	578	H	-1.756117	-30.265893	4.876407	H	5	YLD124.LOD1	0.041636
	579	H	-2.858738	-30.469456	3.508754	H	5	YLD124.LOD1	0.048242
	580	C	-5.219289	-29.885611	4.761052	C	5	YLD124.LOD1	-0.256632
	581	H	-5.361581	-30.443924	3.824339	H	5	YLD124.LOD1	0.046696
	582	H	-6.086014	-30.098241	5.398947	H	5	YLD124.LOD1	0.030906
	583	H	-5.242921	-28.819187	4.506161	H	5	YLD124.LOD1	0.051975
	584	C	1.155248	-24.454162	9.498534	C	5	YLD124.LOD1	-0.203727
	585	H	1.768051	-24.835314	8.672315	H	5	YLD124.LOD1	0.027457
	586	H	0.176481	-24.177867	9.090957	H	5	YLD124.LOD1	0.031775
	587	H	1.636845	-23.535979	9.864498	H	5	YLD124.LOD1	0.046776
	588	C	0.195502	-24.860503	11.785859	C	5	YLD124.LOD1	-0.249027
	589	H	0.103045	-25.540200	12.641992	H	5	YLD124.LOD1	0.037596
	590	H	0.677283	-23.941824	12.150457	H	5	YLD124.LOD1	0.055765
	591	H	-0.815345	-24.598359	11.454374	H	5	YLD124.LOD1	0.04836
	592	C	-0.048939	-28.330105	11.320920	C	5	YLD124.LOD1	-0.409962
	593	H	-0.592454	-27.921530	12.180233	H	5	YLD124.LOD1	0.090944
	594	H	-0.608069	-29.200905	10.957177	H	5	YLD124.LOD1	0.090896
	595	H	0.918677	-28.698255	11.683177	H	5	YLD124.LOD1	0.069902
	596	C	1.077503	-27.839289	8.601132	C	5	YLD124.LOD1	-0.458602
	597	H	0.546556	-28.716383	8.211242	H	5	YLD124.LOD1	0.097974
	598	H	1.208443	-27.134445	7.772440	H	5	YLD124.LOD1	0.103309
	599	H	2.073611	-28.177876	8.911257	H	5	YLD124.LOD1	0.085827
	600	C	-2.000299	-29.723143	7.829705	C	5	YLD124.LOD1	-0.493974
	601	H	-1.176014	-29.397362	7.185789	H	5	YLD124.LOD1	0.11158
	602	H	-1.892900	-29.205556	8.789916	H	5	YLD124.LOD1	0.113577
	603	H	-1.878210	-30.796703	8.014532	H	5	YLD124.LOD1	0.09477
	604	C	-4.967529	-29.721784	8.269279	C	5	YLD124.LOD1	-0.483575
	605	H	-4.827491	-29.165677	9.204253	H	5	YLD124.LOD1	0.116965
	606	H	-5.963557	-29.477458	7.882982	H	5	YLD124.LOD1	0.100121
	607	H	-4.969472	-30.788394	8.523838	H	5	YLD124.LOD1	0.088084
	608	Si	-3.620870	-29.338400	7.084740	Si	5	YLD124.LOD1	0.763339
	609	Si	0.173902	-27.077500	10.001900	Si	5	YLD124.LOD1	0.748472
	610	H	-5.402361	-27.427426	6.056559	H	5	YLD124.LOD1	-0.009815
	611	H	-2.989534	-24.536022	7.527036	H	5	YLD124.LOD1	0.057511
	612	H	-1.784366	-26.626632	7.525337	H	5	YLD124.LOD1	-0.045737
	613	H	-0.814244	-25.234119	8.041225	H	5	YLD124.LOD1	-0.011652
	614	H	-2.743691	-24.495728	9.261035	H	5	YLD124.LOD1	0.023801
	615	H	-5.920582	-26.277079	7.801123	H	5	YLD124.LOD1	-0.001966
	616	H	-5.048908	-24.953344	7.056617	H	5	YLD124.LOD1	0.031172
	617	H	-4.184404	-26.241391	5.558291	H	5	YLD124.LOD1	-0.066029
	618	C	-5.010243	-32.374634	16.566128	C	5	YLD124.LOD1	-0.185058
	619	H	-3.958305	-32.287474	16.268779	H	5	YLD124.LOD1	0.04722
	620	H	-5.085107	-33.196363	17.288371	H	5	YLD124.LOD1	0.027573
	621	H	-5.587550	-32.654729	15.679541	H	5	YLD124.LOD1	0.00699
	622	C	-4.634790	-30.716335	18.408281	C	5	YLD124.LOD1	-0.347891
	623	H	-3.585827	-30.586898	18.115198	H	5	YLD124.LOD1	0.075067
	624	H	-4.964546	-29.789895	18.894202	H	5	YLD124.LOD1	0.071859
	625	H	-4.674227	-31.519290	19.154227	H	5	YLD124.LOD1	0.077505
	626	C	3.513155	-32.248256	25.315251	C	1	YLD124_chi.LOD1	-0.150166
	627	C	2.239765	-31.867997	25.620112	C	1	YLD124_chi.LOD1	-0.190723
	628	H	2.088735	-30.984937	26.239075	H	1	YLD124_chi.LOD1	0.123134
	629	H	3.651466	-33.143720	24.711624	H	1	YLD124_chi.LOD1	0.111619
	630	N	8.462003	-29.903785	26.917382	N	1	YLD124_chi.LOD1	-0.506176
	631	C	7.255941	-30.445026	26.504786	C	1	YLD124_chi.LOD1	0.404469
	632	C	6.013716	-29.853604	26.860889	C	1	YLD124_chi.LOD1	-0.281203
	633	C	4.810021	-30.421149	26.486200	C	1	YLD124_chi.LOD1	-0.112562
	634	C	4.745515	-31.606365	25.721709	C	1	YLD124_chi.LOD1	0.131862
	635	C	5.980892	-32.174376	25.348278	C	1	YLD124_chi.LOD1	-0.140167
	636	C	7.196106	-31.621842	25.716278	C	1	YLD124_chi.LOD1	-0.26473
	637	H	5.988744	-28.937161	27.437083	H	1	YLD124_chi.LOD1	0.177954
	638	H	3.894135	-29.924820	26.793318	H	1	YLD124_chi.LOD1	0.098859
	639	H	5.982800	-33.082462	24.749128	H	1	YLD124_chi.LOD1	0.103807
	640	H	8.104183	-32.110958	25.386490	H	1	YLD124_chi.LOD1	0.161189
	641	C	1.036738	-32.550891	25.228679	C	1	YLD124_chi.LOD1	0.100982
	642	C	-0.179356	-32.082834	25.672228	C	1	YLD124_chi.LOD1	-0.303623
	643	C	1.089777	-33.796175	24.368702	C	1	YLD124_chi.LOD1	0.096207
	644	H	-0.196548	-31.179375	26.279966	H	1	YLD124_chi.LOD1	0.124941
	645	C	-0.230831	-34.103429	23.624719	C	1	YLD124_chi.LOD1	0.409462
	646	H	1.900356	-33.711675	23.634969	H	1	YLD124_chi.LOD1	-0.020765
	647	C	-1.400244	-34.015922	24.633152	C	1	YLD124_chi.LOD1	-0.014279
	648	H	-1.301721	-34.838645	25.358252	H	1	YLD124_chi.LOD1	-0.02177
	649	C	-1.430956	-32.712284	25.402221	C	1	YLD124_chi.LOD1	0.179445
	650	C	-2.494369	-32.060902	25.944513	C	1	YLD124_chi.LOD1	-0.27725
	651	H	-2.384179	-31.130878	26.501977	H	1	YLD124_chi.LOD1	0.132087
	652	C	-3.807420	-32.565423	25.807998	C	1	YLD124_chi.LOD1	0.141075
	653	C	-4.912371	-31.937119	26.345458	C	1	YLD124_chi.LOD1	-0.327608
	654	H	-3.946270	-33.495959	25.269971	H	1	YLD124_chi.LOD1	-0.027316
	655	C	-6.253672	-32.371687	26.273570	C	1	YLD124_chi.LOD1	0.260653
	656	C	-7.337599	-31.754056	26.887310	C	1	YLD124_chi.LOD1	-0.287606
	657	C	-6.803435	-33.592306	25.530454	C	1	YLD124_chi.LOD1	-0.056548
	658	C	-8.530870	-32.510870	26.618571	C	1	YLD124_chi.LOD1	0.509074
	659	C	-7.228136	-30.573971	27.665785	C	1	YLD124_chi.LOD1	0.396907
	660	O	-8.217875	-33.596605	25.871429	O	1	YLD124_chi.LOD1	-0.366332
	661	C	-6.239370	-35.008469	25.887534	C	1	YLD124_chi.LOD1	0.253806
	662	C	-6.830164	-33.450520	23.902405	C	1	YLD124_chi.LOD1	0.598114
	663	C	-9.843058	-32.327794	26.995394	C	1	YLD124_chi.LOD1	-0.43234
	664	N	-7.038059	-29.609001	28.289671	N	1	YLD124_chi.LOD1	-0.430249
	665	C	-10.261626	-31.223514	27.792319	C	1	YLD124_chi.LOD1	0.437474
	666	C	-10.839153	-33.263742	26.586351	C	1	YLD124_chi.LOD1	0.49223
	667	N	-10.646794	-30.337218	28.442460	N	1	YLD124_chi.LOD1	-0.451871
	668	N	-11.662162	-34.020746	26.261332	N	1	YLD124_chi.LOD1	-0.482758
	669	H	-4.754261	-31.016584	26.904710	H	1	YLD124_chi.LOD1	0.157364
	670	H	-2.344922	-34.183654	24.105493	H	1	YLD124_chi.LOD1	0.040059
	671	H	1.352068	-34.652439	25.009567	H	1	YLD124_chi.LOD1	-0.024244
	672	C	8.542588	-28.689093	27.648075	C	1	YLD124_chi.LOD1	0.240322
	673	C	9.723037	-30.446520	26.517427	C	1	YLD124_chi.LOD1	0.113854
	674	C	10.377308	-29.971278	25.341587	C	1	YLD124_chi.LOD1	0.29958
	675	C	8.416268	-27.472924	26.921282	C	1	YLD124_chi.LOD1	0.285774
	676	O	7.809360	-27.672400	25.734600	O	1	YLD124_chi.LOD1	-0.61175
	677	O	10.887200	-28.730800	25.470900	O	1	YLD124_chi.LOD1	-0.599726
	678	C	13.254557	-28.225283	23.956426	C	1	YLD124_chi.LOD1	0.275329
	679	C	6.276796	-27.489680	23.193687	C	1	YLD124_chi.LOD1	0.358728
	680	C	5.083065	-28.191828	23.878092	C	1	YLD124_chi.LOD1	-0.337707
	681	H	4.418364	-27.479156	24.382037	H	1	YLD124_chi.LOD1	0.059176
	682	H	4.478003	-28.728381	23.133179	H	1	YLD124_chi.LOD1	0.075606
	683	H	5.408546	-28.929860	24.621550	H	1	YLD124_chi.LOD1	0.056098
	684	C	12.497634	-27.146706	23.150264	C	1	YLD124_chi.LOD1	-0.311529
	685	H	12.909653	-27.073351	22.133595	H	1	YLD124_chi.LOD1	0.071087
	686	H	11.429710	-27.377550	23.049799	H	1	YLD124_chi.LOD1	0.058721
	687	H	12.584075	-26.152423	23.605906	H	1	YLD124_chi.LOD1	0.056179
	688	C	7.135393	-28.546009	22.464551	C	1	YLD124_chi.LOD1	-0.279876
	689	H	8.008403	-28.094313	21.978654	H	1	YLD124_chi.LOD1	0.048405
	690	H	7.499572	-29.322016	23.148290	H	1	YLD124_chi.LOD1	0.047411
	691	H	6.544597	-29.048674	21.685134	H	1	YLD124_chi.LOD1	0.054899
	692	C	5.734287	-26.486205	22.152822	C	1	YLD124_chi.LOD1	-0.273001
	693	H	5.107145	-27.004692	21.413075	H	1	YLD124_chi.LOD1	0.0526
	694	H	5.114665	-25.705207	22.610809	H	1	YLD124_chi.LOD1	0.034813
	695	H	6.542539	-25.992985	21.599462	H	1	YLD124_chi.LOD1	0.061699
	696	C	14.749274	-27.845160	24.032839	C	1	YLD124_chi.LOD1	-0.202774
	697	H	14.901901	-26.870104	24.511977	H	1	YLD124_chi.LOD1	0.027959
	698	H	15.326365	-28.589036	24.593318	H	1	YLD124_chi.LOD1	0.030756
	699	H	15.178285	-27.781898	23.022364	H	1	YLD124_chi.LOD1	0.045471
	700	C	13.120556	-29.583793	23.234503	C	1	YLD124_chi.LOD1	-0.266625
	701	H	12.072118	-29.885371	23.119878	H	1	YLD124_chi.LOD1	0.041283
	702	H	13.553832	-29.523741	22.225704	H	1	YLD124_chi.LOD1	0.059445
	703	H	13.643037	-30.381078	23.774654	H	1	YLD124_chi.LOD1	0.054675
	704	C	12.633356	-26.762417	26.636364	C	1	YLD124_chi.LOD1	-0.410828
	705	H	12.861342	-26.923231	27.696035	H	1	YLD124_chi.LOD1	0.093855
	706	H	13.420307	-26.120606	26.221446	H	1	YLD124_chi.LOD1	0.090546
	707	H	11.695107	-26.197297	26.579548	H	1	YLD124_chi.LOD1	0.070213
	708	C	13.316558	-29.666223	26.701927	C	1	YLD124_chi.LOD1	-0.460074
	709	H	13.472142	-29.355899	27.742464	H	1	YLD124_chi.LOD1	0.099819
	710	H	12.717019	-30.583217	26.715783	H	1	YLD124_chi.LOD1	0.10243
	711	H	14.302095	-29.918383	26.292246	H	1	YLD124_chi.LOD1	0.086844
	712	C	6.399133	-25.309378	25.378453	C	1	YLD124_chi.LOD1	-0.477029
	713	H	7.046800	-24.663130	25.981003	H	1	YLD124_chi.LOD1	0.107463
	714	H	5.878697	-24.671559	24.654669	H	1	YLD124_chi.LOD1	0.106999
	715	H	5.643503	-25.741746	26.044862	H	1	YLD124_chi.LOD1	0.090486
	716	C	8.860624	-25.858711	23.764556	C	1	YLD124_chi.LOD1	-0.470103
	717	H	8.611809	-25.334916	22.833473	H	1	YLD124_chi.LOD1	0.112461
	718	H	9.367200	-25.144363	24.423716	H	1	YLD124_chi.LOD1	0.098066
	719	H	9.587805	-26.639543	23.511649	H	1	YLD124_chi.LOD1	0.083138
	720	Si	7.360380	-26.598600	24.513700	Si	1	YLD124_chi.LOD1	0.770043
	721	Si	12.510500	-28.344800	25.720100	Si	1	YLD124_chi.LOD1	0.73989
	722	H	7.854395	-26.729501	27.505255	H	1	YLD124_chi.LOD1	-0.017464
	723	H	10.445767	-30.247905	27.313933	H	1	YLD124_chi.LOD1	0.058354
	724	H	11.168127	-30.659640	25.010816	H	1	YLD124_chi.LOD1	-0.04034
	725	H	9.595881	-29.968537	24.566875	H	1	YLD124_chi.LOD1	-0.007901
	726	H	9.610085	-31.534646	26.469036	H	1	YLD124_chi.LOD1	0.028132
	727	H	7.743941	-28.705614	28.396664	H	1	YLD124_chi.LOD1	-0.011538
	728	H	9.484086	-28.684075	28.204680	H	1	YLD124_chi.LOD1	0.020652
	729	H	9.421715	-27.063588	26.750833	H	1	YLD124_chi.LOD1	-0.064856
	730	C	-0.392646	-33.073268	22.519037	C	1	YLD124_chi.LOD1	-0.299384
	731	H	0.419753	-33.151147	21.786594	H	1	YLD124_chi.LOD1	0.066854
	732	H	-1.333197	-33.280838	21.994882	H	1	YLD124_chi.LOD1	0.072315
	733	H	-0.427699	-32.037920	22.872092	H	1	YLD124_chi.LOD1	0.027971
	734	C	-0.117358	-35.497324	23.094174	C	1	YLD124_chi.LOD1	-0.427943
	735	H	0.716190	-35.597346	22.388450	H	1	YLD124_chi.LOD1	0.089807
	736	H	0.019324	-36.246140	23.883951	H	1	YLD124_chi.LOD1	0.091303
	737	H	-1.039916	-35.743023	22.554583	H	1	YLD124_chi.LOD1	0.089757
	738	C	-6.086314	-35.224160	27.265450	C	1	YLD124_chi.LOD1	-0.158763
	739	C	-5.882323	-36.030877	24.999109	C	1	YLD124_chi.LOD1	-0.147279
	740	C	-5.582414	-36.429517	27.745832	C	1	YLD124_chi.LOD1	-0.065518
	741	H	-6.365789	-34.444736	27.967886	H	1	YLD124_chi.LOD1	0.080042
	742	C	-5.368706	-37.235639	25.484171	C	1	YLD124_chi.LOD1	-0.090746
	743	H	-6.002876	-35.908925	23.930625	H	1	YLD124_chi.LOD1	0.09871
	744	C	-5.217568	-37.440382	26.854288	C	1	YLD124_chi.LOD1	-0.09866
	745	H	-5.475076	-36.577481	28.816538	H	1	YLD124_chi.LOD1	0.104949
	746	H	-4.822773	-38.381551	27.226655	H	1	YLD124_chi.LOD1	0.102095
	747	H	-5.096536	-38.018056	24.781350	H	1	YLD124_chi.LOD1	0.105434
	748	F	-7.114570	-32.166283	23.637964	F	1	YLD124_chi.LOD1	-0.19867
	749	F	-7.743470	-34.209102	23.275144	F	1	YLD124_chi.LOD1	-0.154403
	750	F	-5.623465	-33.726816	23.359016	F	1	YLD124_chi.LOD1	-0.186491
	751	C	-7.305690	-26.138937	-20.422734	C	1	YLD124.LOD1	-0.158041
	752	C	-6.873347	-25.662003	-19.220783	C	1	YLD124.LOD1	-0.174247
	753	H	-7.071461	-24.621679	-18.967452	H	1	YLD124.LOD1	0.11023
	754	H	-7.090247	-27.176474	-20.672659	H	1	YLD124.LOD1	0.116594
	755	N	-10.173983	-23.435972	-24.549951	N	1	YLD124.LOD1	-0.477879
	756	C	-9.492257	-24.087590	-23.535953	C	1	YLD124.LOD1	0.383639
	757	C	-9.131305	-23.420719	-22.333923	C	1	YLD124.LOD1	-0.278193
	758	C	-8.426020	-24.064843	-21.334511	C	1	YLD124.LOD1	-0.102205
	759	C	-8.034020	-25.416721	-21.444575	C	1	YLD124.LOD1	0.126725
	760	C	-8.403163	-26.076875	-22.634645	C	1	YLD124.LOD1	-0.148338
	761	C	-9.109293	-25.448232	-23.646547	C	1	YLD124.LOD1	-0.248652
	762	H	-9.406783	-22.385206	-22.178020	H	1	YLD124.LOD1	0.176041
	763	H	-8.177031	-23.500251	-20.440825	H	1	YLD124.LOD1	0.098595
	764	H	-8.128291	-27.121542	-22.763965	H	1	YLD124.LOD1	0.105176
	765	H	-9.367252	-26.023136	-24.527203	H	1	YLD124.LOD1	0.157607
	766	C	-6.147460	-26.401859	-18.224711	C	1	YLD124.LOD1	0.13089
	767	C	-5.746145	-25.764599	-17.072409	C	1	YLD124.LOD1	-0.298955
	768	C	-5.799389	-27.861206	-18.430991	C	1	YLD124.LOD1	0.000678
	769	H	-6.015679	-24.718018	-16.938567	H	1	YLD124.LOD1	0.128536
	770	C	-5.529622	-28.634252	-17.118667	C	1	YLD124.LOD1	0.312314
	771	H	-6.601732	-28.365604	-18.982443	H	1	YLD124.LOD1	0.009572
	772	C	-4.547081	-27.812344	-16.251911	C	1	YLD124.LOD1	0.132423
	773	H	-3.569688	-27.785721	-16.758290	H	1	YLD124.LOD1	-0.011706
	774	C	-4.998095	-26.384760	-16.027738	C	1	YLD124.LOD1	0.094029
	775	C	-4.756096	-25.563764	-14.969880	C	1	YLD124.LOD1	-0.194272
	776	H	-5.115048	-24.535142	-14.939020	H	1	YLD124.LOD1	0.118653
	777	C	-4.025880	-26.013950	-13.846923	C	1	YLD124.LOD1	0.029031
	778	C	-3.787347	-25.225844	-12.739472	C	1	YLD124.LOD1	-0.298661
	779	H	-3.646490	-27.029055	-13.856159	H	1	YLD124.LOD1	0.063317
	780	C	-3.106649	-25.605000	-11.562228	C	1	YLD124.LOD1	0.24754
	781	C	-2.958813	-24.820535	-10.423802	C	1	YLD124.LOD1	-0.281071
	782	C	-2.412168	-26.938551	-11.272026	C	1	YLD124.LOD1	-0.098074
	783	C	-2.259557	-25.572244	-9.416453	C	1	YLD124.LOD1	0.526995
	784	C	-3.462627	-23.499832	-10.312484	C	1	YLD124.LOD1	0.389724
	785	O	-1.990297	-26.814586	-9.886286	O	1	YLD124.LOD1	-0.351072
	786	C	-1.001906	-27.160646	-12.054427	C	1	YLD124.LOD1	0.617997
	787	C	-3.244055	-28.257749	-11.385445	C	1	YLD124.LOD1	0.253109
	788	C	-1.872274	-25.256524	-8.132944	C	1	YLD124.LOD1	-0.451385
	789	N	-3.915513	-22.426784	-10.313691	N	1	YLD124.LOD1	-0.428829
	790	F	-0.279359	-26.043153	-11.884396	F	1	YLD124.LOD1	-0.200469
	791	F	-0.260047	-28.197649	-11.634297	F	1	YLD124.LOD1	-0.158364
	792	F	-1.214339	-27.316502	-13.380195	F	1	YLD124.LOD1	-0.193377
	793	C	-4.491065	-28.063281	-11.997989	C	1	YLD124.LOD1	-0.158716
	794	C	-2.920581	-29.529808	-10.896653	C	1	YLD124.LOD1	-0.162688
	795	C	-2.126360	-23.981222	-7.550863	C	1	YLD124.LOD1	0.447489
	796	C	-1.190418	-26.223661	-7.335897	C	1	YLD124.LOD1	0.491336
	797	H	-4.759434	-27.080809	-12.374741	H	1	YLD124.LOD1	0.085247
	798	C	-5.392551	-29.115845	-12.127182	C	1	YLD124.LOD1	-0.074329
	799	C	-3.823939	-30.586304	-11.036493	C	1	YLD124.LOD1	-0.055824
	800	H	-1.976115	-29.714114	-10.401452	H	1	YLD124.LOD1	0.099228
	801	N	-2.313833	-22.953200	-7.036499	N	1	YLD124.LOD1	-0.454587
	802	N	-0.635342	-27.004029	-6.673370	N	1	YLD124.LOD1	-0.481156
	803	H	-6.354358	-28.943608	-12.601551	H	1	YLD124.LOD1	0.111202
	804	C	-5.059183	-30.385208	-11.649642	C	1	YLD124.LOD1	-0.106678
	805	H	-3.558326	-31.566568	-10.650702	H	1	YLD124.LOD1	0.095951
	806	H	-5.760589	-31.208745	-11.750442	H	1	YLD124.LOD1	0.103827
	807	H	-4.182701	-24.211519	-12.739169	H	1	YLD124.LOD1	0.159396
	808	H	-4.385832	-28.330088	-15.300756	H	1	YLD124.LOD1	-0.052081
	809	H	-4.907916	-27.920484	-19.074606	H	1	YLD124.LOD1	-0.003289
	810	C	-10.655381	-22.106213	-24.432787	C	1	YLD124.LOD1	0.198954
	811	C	-10.583817	-24.118736	-25.734665	C	1	YLD124.LOD1	0.115128
	812	C	-11.694474	-25.004109	-25.631007	C	1	YLD124.LOD1	0.306486
	813	C	-12.025416	-21.844031	-24.123673	C	1	YLD124.LOD1	0.28632
	814	O	-12.858100	-21.949400	-25.177300	O	1	YLD124.LOD1	-0.606883
	815	O	-12.206400	-24.985200	-24.384900	O	1	YLD124.LOD1	-0.600198
	816	C	-13.237790	-25.494609	-21.796584	C	1	YLD124.LOD1	0.267162
	817	C	-13.674760	-21.570565	-28.013900	C	1	YLD124.LOD1	0.369124
	818	C	-14.042919	-20.477444	-29.041918	C	1	YLD124.LOD1	-0.324271
	819	H	-13.204933	-19.797986	-29.241710	H	1	YLD124.LOD1	0.053925
	820	H	-14.323424	-20.936372	-30.000881	H	1	YLD124.LOD1	0.070181
	821	H	-14.895113	-19.870632	-28.712724	H	1	YLD124.LOD1	0.052098
	822	C	-13.976581	-26.522245	-20.910811	C	1	YLD124.LOD1	-0.316887
	823	H	-14.116131	-26.118689	-19.897722	H	1	YLD124.LOD1	0.07213
	824	H	-14.972288	-26.765963	-21.301867	H	1	YLD124.LOD1	0.059956
	825	H	-13.416824	-27.460503	-20.810801	H	1	YLD124.LOD1	0.057948
	826	C	-14.888261	-22.503982	-27.813349	C	1	YLD124.LOD1	-0.260833
	827	H	-14.677208	-23.293121	-27.082060	H	1	YLD124.LOD1	0.041714
	828	H	-15.772130	-21.956530	-27.465056	H	1	YLD124.LOD1	0.041636
	829	H	-15.158779	-22.991956	-28.760965	H	1	YLD124.LOD1	0.048242
	830	C	-12.495680	-22.397927	-28.570280	C	1	YLD124.LOD1	-0.256632
	831	H	-12.764011	-22.841695	-29.540053	H	1	YLD124.LOD1	0.046696
	832	H	-11.598757	-21.787251	-28.731336	H	1	YLD124.LOD1	0.030906
	833	H	-12.224172	-23.224688	-27.902793	H	1	YLD124.LOD1	0.051975
	834	C	-11.862571	-25.181156	-21.167890	C	1	YLD124.LOD1	-0.203727
	835	H	-11.244145	-26.081526	-21.066270	H	1	YLD124.LOD1	0.027457
	836	H	-11.301384	-24.454000	-21.765181	H	1	YLD124.LOD1	0.031775
	837	H	-11.991220	-24.759116	-20.160787	H	1	YLD124.LOD1	0.046776
	838	C	-14.067586	-24.193829	-21.861558	C	1	YLD124.LOD1	-0.249027
	839	H	-15.070940	-24.368210	-22.269445	H	1	YLD124.LOD1	0.037596
	840	H	-14.194808	-23.771945	-20.854163	H	1	YLD124.LOD1	0.055765
	841	H	-13.579922	-23.434168	-22.482454	H	1	YLD124.LOD1	0.04836
	842	C	-14.605496	-26.576633	-24.380801	C	1	YLD124.LOD1	-0.409962
	843	H	-15.254092	-25.693851	-24.408744	H	1	YLD124.LOD1	0.090944
	844	H	-14.457885	-26.913745	-25.414142	H	1	YLD124.LOD1	0.090896
	845	H	-15.149034	-27.372937	-23.857820	H	1	YLD124.LOD1	0.069902
	846	C	-11.979931	-27.735653	-23.561965	C	1	YLD124.LOD1	-0.458602
	847	H	-11.811916	-28.103060	-24.581766	H	1	YLD124.LOD1	0.097974
	848	H	-10.999094	-27.561627	-23.105507	H	1	YLD124.LOD1	0.103309
	849	H	-12.467973	-28.544704	-23.004919	H	1	YLD124.LOD1	0.085827
	850	C	-14.645483	-19.876673	-25.599313	C	1	YLD124.LOD1	-0.493974
	851	H	-15.471493	-20.559423	-25.371796	H	1	YLD124.LOD1	0.11158
	852	H	-14.351059	-19.391437	-24.661604	H	1	YLD124.LOD1	0.113577
	853	H	-15.027477	-19.099189	-26.271024	H	1	YLD124.LOD1	0.09477
	854	C	-11.798416	-19.628548	-26.510586	C	1	YLD124.LOD1	-0.483575
	855	H	-11.529096	-19.184998	-25.544267	H	1	YLD124.LOD1	0.116965
	856	H	-10.905084	-20.121145	-26.910960	H	1	YLD124.LOD1	0.100121
	857	H	-12.046475	-18.802889	-27.188240	H	1	YLD124.LOD1	0.088084
	858	Si	-13.225000	-20.765500	-26.321500	Si	1	YLD124.LOD1	0.763339
	859	Si	-13.007900	-26.218200	-23.557600	Si	1	YLD124.LOD1	0.748472
	860	H	-12.289855	-22.596986	-23.366738	H	1	YLD124.LOD1	-0.009815
	861	H	-10.818083	-23.369552	-26.496257	H	1	YLD124.LOD1	0.057511
	862	H	-12.471666	-24.719883	-26.354950	H	1	YLD124.LOD1	-0.045737
	863	H	-11.370585	-26.026279	-25.878170	H	1	YLD124.LOD1	-0.011652
	864	H	-9.721725	-24.680101	-26.109897	H	1	YLD124.LOD1	0.023801
	865	H	-10.009151	-21.591898	-23.713607	H	1	YLD124.LOD1	-0.001966
	866	H	-10.505111	-21.605084	-25.392961	H	1	YLD124.LOD1	0.031172
	867	H	-12.142809	-20.855746	-23.657988	H	1	YLD124.LOD1	-0.066029
	868	C	-6.861798	-28.815268	-16.399325	C	1	YLD124.LOD1	-0.185058
	869	H	-7.551574	-29.422702	-16.997505	H	1	YLD124.LOD1	0.04722
	870	H	-6.673559	-29.351465	-15.461490	H	1	YLD124.LOD1	0.027573
	871	H	-7.368411	-27.877077	-16.152512	H	1	YLD124.LOD1	0.00699
	872	C	-4.908202	-29.938305	-17.497823	C	1	YLD124.LOD1	-0.347891
	873	H	-5.573689	-30.538443	-18.130226	H	1	YLD124.LOD1	0.075067
	874	H	-3.957164	-29.817411	-18.030797	H	1	YLD124.LOD1	0.071859
	875	H	-4.710861	-30.512870	-16.584774	H	1	YLD124.LOD1	0.077505
	876	C	-29.943839	-26.818487	-21.421547	C	2	YLD124.LOD1	-0.158041
	877	C	-30.442431	-28.040575	-21.763569	C	2	YLD124.LOD1	-0.174247
	878	H	-29.870172	-28.930830	-21.507319	H	2	YLD124.LOD1	0.11023
	879	H	-30.516635	-25.933830	-21.694768	H	2	YLD124.LOD1	0.116594
	880	N	-25.102896	-25.540888	-18.682924	N	2	YLD124.LOD1	-0.477879
	881	C	-26.283081	-25.861811	-19.332322	C	2	YLD124.LOD1	0.383639
	882	C	-26.644711	-27.210908	-19.595080	C	2	YLD124.LOD1	-0.278193
	883	C	-27.809588	-27.528269	-20.268497	C	2	YLD124.LOD1	-0.102205
	884	C	-28.707073	-26.537718	-20.723121	C	2	YLD124.LOD1	0.126725
	885	C	-28.348871	-25.201268	-20.451221	C	2	YLD124.LOD1	-0.148338
	886	C	-27.186402	-24.864152	-19.778335	C	2	YLD124.LOD1	-0.248652
	887	H	-26.007336	-28.022635	-19.267460	H	2	YLD124.LOD1	0.176041
	888	H	-28.028894	-28.577731	-20.441614	H	2	YLD124.LOD1	0.098595
	889	H	-29.011317	-24.402160	-20.777099	H	2	YLD124.LOD1	0.105176
	890	H	-26.983484	-23.816213	-19.595959	H	2	YLD124.LOD1	0.157607
	891	C	-31.673895	-28.290471	-22.461785	C	2	YLD124.LOD1	0.13089
	892	C	-32.022544	-29.586261	-22.768914	C	2	YLD124.LOD1	-0.298955
	893	C	-32.581115	-27.153279	-22.882671	C	2	YLD124.LOD1	0.000678
	894	H	-31.361923	-30.390314	-22.448020	H	2	YLD124.LOD1	0.128536
	895	C	-34.052213	-27.574149	-23.109182	C	2	YLD124.LOD1	0.312314
	896	H	-32.551572	-26.351405	-22.135413	H	2	YLD124.LOD1	0.009572
	897	C	-34.075088	-28.835043	-24.004620	C	2	YLD124.LOD1	0.132423
	898	H	-33.712787	-28.560324	-25.007463	H	2	YLD124.LOD1	-0.011706
	899	C	-33.202139	-29.955685	-23.481373	C	2	YLD124.LOD1	0.094029
	900	C	-33.351699	-31.300309	-23.627211	C	2	YLD124.LOD1	-0.194272
	901	H	-32.631418	-32.011869	-23.223800	H	2	YLD124.LOD1	0.118653
	902	C	-34.463619	-31.842617	-24.310183	C	2	YLD124.LOD1	0.029031
	903	C	-34.671211	-33.199635	-24.451125	C	2	YLD124.LOD1	-0.298661
	904	H	-35.189448	-31.157371	-24.732166	H	2	YLD124.LOD1	0.063317
	905	C	-35.769468	-33.826651	-25.078577	C	2	YLD124.LOD1	0.24754
	906	C	-36.000371	-35.196888	-25.127428	C	2	YLD124.LOD1	-0.281071
	907	C	-36.935355	-33.156639	-25.811156	C	2	YLD124.LOD1	-0.098074
	908	C	-37.247939	-35.444733	-25.798937	C	2	YLD124.LOD1	0.526995
	909	C	-35.125067	-36.158763	-24.562525	C	2	YLD124.LOD1	0.389724
	910	O	-37.815157	-34.264194	-26.147144	O	2	YLD124.LOD1	-0.351072
	911	C	-36.563505	-32.542232	-27.272166	C	2	YLD124.LOD1	0.617997
	912	C	-37.795739	-32.100123	-25.043923	C	2	YLD124.LOD1	0.253109
	913	C	-37.918597	-36.609956	-26.098167	C	2	YLD124.LOD1	-0.451385
	914	N	-34.349674	-36.871609	-24.065377	N	2	YLD124.LOD1	-0.428829
	915	F	-35.886668	-33.491622	-27.935737	F	2	YLD124.LOD1	-0.200469
	916	F	-37.607442	-32.174635	-28.031974	F	2	YLD124.LOD1	-0.158364
	917	F	-35.750349	-31.470237	-27.142993	F	2	YLD124.LOD1	-0.193377
	918	C	-37.788511	-32.296860	-23.654929	C	2	YLD124.LOD1	-0.158716
	919	C	-38.534644	-31.034492	-25.573204	C	2	YLD124.LOD1	-0.162688
	920	C	-37.406014	-37.894794	-25.757254	C	2	YLD124.LOD1	0.447489
	921	C	-39.174219	-36.556372	-26.773524	C	2	YLD124.LOD1	0.491336
	922	H	-37.226776	-33.123518	-23.230305	H	2	YLD124.LOD1	0.085247
	923	C	-38.496227	-31.445204	-22.811675	C	2	YLD124.LOD1	-0.074329
	924	C	-39.236144	-30.175920	-24.723175	C	2	YLD124.LOD1	-0.055824
	925	H	-38.579586	-30.861988	-26.640644	H	2	YLD124.LOD1	0.099228
	926	N	-37.024418	-38.964035	-25.497153	N	2	YLD124.LOD1	-0.454587
	927	N	-40.200916	-36.527365	-27.322231	N	2	YLD124.LOD1	-0.481156
	928	H	-38.480522	-31.616814	-21.739262	H	2	YLD124.LOD1	0.111202
	929	C	-39.220576	-30.376433	-23.344128	C	2	YLD124.LOD1	-0.106678
	930	H	-39.805547	-29.354879	-25.149758	H	2	YLD124.LOD1	0.095951
	931	H	-39.772761	-29.709474	-22.687927	H	2	YLD124.LOD1	0.103827
	932	H	-33.939571	-33.876819	-24.013765	H	2	YLD124.LOD1	0.159396
	933	H	-35.110451	-29.167231	-24.132801	H	2	YLD124.LOD1	-0.052081
	934	H	-32.184108	-26.714586	-23.811333	H	2	YLD124.LOD1	-0.003289
	935	C	-24.241647	-26.533604	-18.150138	C	2	YLD124.LOD1	0.198954
	936	C	-24.755792	-24.193177	-18.364121	C	2	YLD124.LOD1	0.115128
	937	C	-25.336708	-23.619792	-17.197031	C	2	YLD124.LOD1	0.306486
	938	C	-24.600410	-27.229942	-16.955712	C	2	YLD124.LOD1	0.28632
	939	O	-25.559800	-28.158800	-17.133100	O	2	YLD124.LOD1	-0.606883
	940	O	-26.237900	-24.458200	-16.649500	O	2	YLD124.LOD1	-0.600198
	941	C	-28.362417	-25.548930	-15.126454	C	2	YLD124.LOD1	0.267162
	942	C	-24.531229	-30.855364	-17.859407	C	2	YLD124.LOD1	0.369124
	943	C	-24.549303	-32.331524	-17.403449	C	2	YLD124.LOD1	-0.324271
	944	H	-25.558587	-32.760935	-17.430895	H	2	YLD124.LOD1	0.053925
	945	H	-23.919525	-32.941986	-18.066490	H	2	YLD124.LOD1	0.070181
	946	H	-24.160475	-32.454452	-16.385350	H	2	YLD124.LOD1	0.052098
	947	C	-28.914499	-25.761438	-13.699399	C	2	YLD124.LOD1	-0.316887
	948	H	-29.867142	-26.308782	-13.738987	H	2	YLD124.LOD1	0.07213
	949	H	-28.230214	-26.348033	-13.073767	H	2	YLD124.LOD1	0.059956
	950	H	-29.108305	-24.811943	-13.185047	H	2	YLD124.LOD1	0.057948
	951	C	-23.077848	-30.335044	-17.827390	C	2	YLD124.LOD1	-0.260833
	952	H	-23.015677	-29.284483	-18.134838	H	2	YLD124.LOD1	0.041714
	953	H	-22.636957	-30.414607	-16.826630	H	2	YLD124.LOD1	0.041636
	954	H	-22.444930	-30.919852	-18.510535	H	2	YLD124.LOD1	0.048242
	955	C	-25.057069	-30.777451	-19.309145	C	2	YLD124.LOD1	-0.256632
	956	H	-24.443056	-31.403600	-19.972708	H	2	YLD124.LOD1	0.046696
	957	H	-26.091456	-31.132233	-19.395797	H	2	YLD124.LOD1	0.030906
	958	H	-25.017868	-29.755387	-19.704917	H	2	YLD124.LOD1	0.051975
	959	C	-29.390256	-24.744451	-15.951740	C	2	YLD124.LOD1	-0.203727
	960	H	-29.605645	-23.768930	-15.498520	H	2	YLD124.LOD1	0.027457
	961	H	-29.039047	-24.569253	-16.974677	H	2	YLD124.LOD1	0.031775
	962	H	-30.341738	-25.291976	-16.013575	H	2	YLD124.LOD1	0.046776
	963	C	-28.148023	-26.924038	-15.795728	C	2	YLD124.LOD1	-0.249027
	964	H	-27.450390	-27.551633	-15.227457	H	2	YLD124.LOD1	0.037596
	965	H	-29.100193	-27.470387	-15.858101	H	2	YLD124.LOD1	0.055765
	966	H	-27.754910	-26.821186	-16.813224	H	2	YLD124.LOD1	0.04836
	967	C	-25.419083	-25.513788	-14.099273	C	2	YLD124.LOD1	-0.409962
	968	H	-25.263703	-26.519303	-14.506163	H	2	YLD124.LOD1	0.090944
	969	H	-24.454274	-24.992456	-14.123445	H	2	YLD124.LOD1	0.090896
	970	H	-25.699782	-25.620990	-13.044399	H	2	YLD124.LOD1	0.069902
	971	C	-26.892585	-22.926369	-14.300491	C	2	YLD124.LOD1	-0.458602
	972	H	-25.944545	-22.374652	-14.306972	H	2	YLD124.LOD1	0.097974
	973	H	-27.629811	-22.326888	-14.846201	H	2	YLD124.LOD1	0.103309
	974	H	-27.221230	-22.988873	-13.255917	H	2	YLD124.LOD1	0.085827
	975	C	-24.925833	-29.774640	-14.975335	C	2	YLD124.LOD1	-0.493974
	976	H	-23.930241	-29.318656	-14.942483	H	2	YLD124.LOD1	0.11158
	977	H	-25.576308	-29.194289	-14.310871	H	2	YLD124.LOD1	0.113577
	978	H	-24.845639	-30.786813	-14.562211	H	2	YLD124.LOD1	0.09477
	979	C	-27.336945	-30.372686	-16.656545	C	2	YLD124.LOD1	-0.483575
	980	H	-27.951095	-29.749255	-15.995337	H	2	YLD124.LOD1	0.116965
	981	H	-27.802752	-30.364637	-17.648488	H	2	YLD124.LOD1	0.100121
	982	H	-27.394037	-31.400322	-16.278174	H	2	YLD124.LOD1	0.088084
	983	Si	-25.601300	-29.780300	-16.670300	Si	2	YLD124.LOD1	0.763339
	984	Si	-26.701100	-24.595500	-15.032800	Si	2	YLD124.LOD1	0.748472
	985	H	-23.720678	-27.692489	-16.484602	H	2	YLD124.LOD1	-0.009815
	986	H	-23.667336	-24.134243	-18.274846	H	2	YLD124.LOD1	0.057511
	987	H	-24.546887	-23.396179	-16.465536	H	2	YLD124.LOD1	-0.045737
	988	H	-25.829009	-22.669469	-17.452666	H	2	YLD124.LOD1	-0.011652
	989	H	-25.028444	-23.570772	-19.222843	H	2	YLD124.LOD1	0.023801
	990	H	-24.151963	-27.327667	-18.898987	H	2	YLD124.LOD1	-0.001966
	991	H	-23.243630	-26.100114	-18.042001	H	2	YLD124.LOD1	0.031172
	992	H	-24.964621	-26.448837	-16.274113	H	2	YLD124.LOD1	-0.066029
	993	C	-34.670306	-27.868910	-21.746795	C	2	YLD124.LOD1	-0.185058
	994	H	-34.683267	-26.969954	-21.118865	H	2	YLD124.LOD1	0.04722
	995	H	-35.709900	-28.180653	-21.903444	H	2	YLD124.LOD1	0.027573
	996	H	-34.163866	-28.661706	-21.187539	H	2	YLD124.LOD1	0.00699
	997	C	-34.730331	-26.440549	-23.806074	C	2	YLD124.LOD1	-0.347891
	998	H	-34.714462	-25.523893	-23.204026	H	2	YLD124.LOD1	0.075067
	999	H	-34.281600	-26.210448	-24.780160	H	2	YLD124.LOD1	0.071859
	1000	H	-35.780296	-26.708535	-23.974850	H	2	YLD124.LOD1	0.077505
	1001	C	5.131436	-31.586147	20.148699	C	1	YLD124_chi.LOD1	-0.150166
	1002	C	6.080701	-31.963766	19.245727	C	1	YLD124_chi.LOD1	-0.190723
	1003	H	5.805021	-32.043186	18.195293	H	1	YLD124_chi.LOD1	0.123134
	1004	H	5.414605	-31.528960	21.198412	H	1	YLD124_chi.LOD1	0.111619
	1005	N	-0.380627	-30.380894	19.300771	N	1	YLD124_chi.LOD1	-0.506176
	1006	C	0.966118	-30.640874	19.491695	C	1	YLD124_chi.LOD1	0.404469
	1007	C	1.828159	-30.941524	18.402565	C	1	YLD124_chi.LOD1	-0.281203
	1008	C	3.162305	-31.245438	18.600235	C	1	YLD124_chi.LOD1	-0.112562
	1009	C	3.745182	-31.261708	19.886056	C	1	YLD124_chi.LOD1	0.131862
	1010	C	2.891987	-30.936505	20.960553	C	1	YLD124_chi.LOD1	-0.140167
	1011	C	1.552956	-30.632039	20.782340	C	1	YLD124_chi.LOD1	-0.26473
	1012	H	1.450596	-30.936165	17.387722	H	1	YLD124_chi.LOD1	0.177954
	1013	H	3.768890	-31.471744	17.728253	H	1	YLD124_chi.LOD1	0.098859
	1014	H	3.297959	-30.924812	21.969836	H	1	YLD124_chi.LOD1	0.103807
	1015	H	0.961196	-30.385571	21.655078	H	1	YLD124_chi.LOD1	0.161189
	1016	C	7.442094	-32.314285	19.546702	C	1	YLD124_chi.LOD1	0.100982
	1017	C	8.268001	-32.743752	18.532733	C	1	YLD124_chi.LOD1	-0.303623
	1018	C	7.969070	-32.254083	20.965073	C	1	YLD124_chi.LOD1	0.096207
	1019	H	7.873115	-32.768790	17.518180	H	1	YLD124_chi.LOD1	0.124941
	1020	C	9.509372	-32.152132	21.059931	C	1	YLD124_chi.LOD1	0.409462
	1021	H	7.522736	-31.404605	21.495842	H	1	YLD124_chi.LOD1	-0.020765
	1022	C	10.135208	-33.227368	20.141064	C	1	YLD124_chi.LOD1	-0.014279
	1023	H	9.904902	-34.221255	20.555186	H	1	YLD124_chi.LOD1	-0.02177
	1024	C	9.614204	-33.177444	18.720520	C	1	YLD124_chi.LOD1	0.179445
	1025	C	10.229924	-33.551607	17.567303	C	1	YLD124_chi.LOD1	-0.27725
	1026	H	9.736246	-33.489001	16.597656	H	1	YLD124_chi.LOD1	0.132087
	1027	C	11.554546	-34.044178	17.572695	C	1	YLD124_chi.LOD1	0.141075
	1028	C	12.213631	-34.437297	16.425695	C	1	YLD124_chi.LOD1	-0.327608
	1029	H	12.066178	-34.130241	18.524260	H	1	YLD124_chi.LOD1	-0.027316
	1030	C	13.524729	-34.953031	16.335438	C	1	YLD124_chi.LOD1	0.260653
	1031	C	14.136153	-35.408239	15.172687	C	1	YLD124_chi.LOD1	-0.287606
	1032	C	14.540547	-35.130597	17.467231	C	1	YLD124_chi.LOD1	-0.056548
	1033	C	15.452837	-35.894540	15.486915	C	1	YLD124_chi.LOD1	0.509074
	1034	C	13.508272	-35.394393	13.901397	C	1	YLD124_chi.LOD1	0.396907
	1035	O	15.672044	-35.775263	16.818354	O	1	YLD124_chi.LOD1	-0.366332
	1036	C	14.149746	-36.015987	18.697846	C	1	YLD124_chi.LOD1	0.253806
	1037	C	15.195209	-33.742314	18.029309	C	1	YLD124_chi.LOD1	0.598114
	1038	C	16.443932	-36.443816	14.703732	C	1	YLD124_chi.LOD1	-0.43234
	1039	N	12.909788	-35.346781	12.903358	N	1	YLD124_chi.LOD1	-0.430249
	1040	C	16.295917	-36.621095	13.297892	C	1	YLD124_chi.LOD1	0.437474
	1041	C	17.673162	-36.858995	15.297149	C	1	YLD124_chi.LOD1	0.49223
	1042	N	16.217009	-36.784650	12.147422	N	1	YLD124_chi.LOD1	-0.451871
	1043	N	18.680590	-37.204006	15.768413	N	1	YLD124_chi.LOD1	-0.482758
	1044	H	11.678001	-34.368724	15.480419	H	1	YLD124_chi.LOD1	0.157364
	1045	H	11.225691	-33.130877	20.163678	H	1	YLD124_chi.LOD1	0.040059
	1046	H	7.632030	-33.154805	21.501541	H	1	YLD124_chi.LOD1	-0.024244
	1047	C	-0.987928	-30.312283	18.018410	C	1	YLD124_chi.LOD1	0.240322
	1048	C	-1.257589	-30.013600	20.369131	C	1	YLD124_chi.LOD1	0.113854
	1049	C	-1.570861	-28.647021	20.642574	C	1	YLD124_chi.LOD1	0.29958
	1050	C	-1.061178	-29.045402	17.375122	C	1	YLD124_chi.LOD1	0.285774
	1051	O	-0.068546	-28.228100	17.778800	O	1	YLD124_chi.LOD1	-0.61175
	1052	O	-2.581500	-28.146800	19.905100	O	1	YLD124_chi.LOD1	-0.599726
	1053	C	-3.639708	-25.785419	21.092337	C	1	YLD124_chi.LOD1	0.275329
	1054	C	2.181514	-26.328672	18.063032	C	1	YLD124_chi.LOD1	0.358728
	1055	C	1.383937	-25.249925	18.828925	C	1	YLD124_chi.LOD1	-0.337707
	1056	H	0.604855	-25.686833	19.465974	H	1	YLD124_chi.LOD1	0.059176
	1057	H	2.053237	-24.674101	19.484172	H	1	YLD124_chi.LOD1	0.075606
	1058	H	0.901065	-24.534429	18.151976	H	1	YLD124_chi.LOD1	0.056098
	1059	C	-4.243362	-24.744681	20.123512	C	1	YLD124_chi.LOD1	-0.311529
	1060	H	-4.005814	-23.726489	20.463533	H	1	YLD124_chi.LOD1	0.071087
	1061	H	-3.845784	-24.846076	19.105919	H	1	YLD124_chi.LOD1	0.058721
	1062	H	-5.336438	-24.818489	20.065054	H	1	YLD124_chi.LOD1	0.056179
	1063	C	3.289021	-25.644961	17.231992	C	1	YLD124_chi.LOD1	-0.279876
	1064	H	3.870625	-26.372949	16.654028	H	1	YLD124_chi.LOD1	0.048405
	1065	H	2.879690	-24.911378	16.527284	H	1	YLD124_chi.LOD1	0.047411
	1066	H	3.987836	-25.109832	17.891156	H	1	YLD124_chi.LOD1	0.054899
	1067	C	2.842651	-27.278782	19.085219	C	1	YLD124_chi.LOD1	-0.273001
	1068	H	3.498182	-26.713638	19.763638	H	1	YLD124_chi.LOD1	0.0526
	1069	H	2.104542	-27.798989	19.708292	H	1	YLD124_chi.LOD1	0.034813
	1070	H	3.464670	-28.038003	18.595914	H	1	YLD124_chi.LOD1	0.061699
	1071	C	-4.225957	-25.564011	22.503650	C	1	YLD124_chi.LOD1	-0.202774
	1072	H	-5.318853	-25.659172	22.514807	H	1	YLD124_chi.LOD1	0.027959
	1073	H	-3.818880	-26.280004	23.226258	H	1	YLD124_chi.LOD1	0.030756
	1074	H	-3.983656	-24.553225	22.862419	H	1	YLD124_chi.LOD1	0.045471
	1075	C	-2.108564	-25.593606	21.151364	C	1	YLD124_chi.LOD1	-0.266625
	1076	H	-1.643298	-25.704000	20.164120	H	1	YLD124_chi.LOD1	0.041283
	1077	H	-1.864488	-24.585026	21.514960	H	1	YLD124_chi.LOD1	0.059445
	1078	H	-1.637303	-26.314920	21.828146	H	1	YLD124_chi.LOD1	0.054675
	1079	C	-5.284413	-27.552987	19.113472	C	1	YLD124_chi.LOD1	-0.410828
	1080	H	-5.186770	-28.440218	18.477840	H	1	YLD124_chi.LOD1	0.093855
	1081	H	-6.309910	-27.534933	19.502572	H	1	YLD124_chi.LOD1	0.090546
	1082	H	-5.168491	-26.670113	18.473162	H	1	YLD124_chi.LOD1	0.070213
	1083	C	-4.664223	-28.622994	21.829554	C	1	YLD124_chi.LOD1	-0.460074
	1084	H	-3.857110	-29.232601	22.254021	H	1	YLD124_chi.LOD1	0.099819
	1085	H	-5.099134	-28.034709	22.645207	H	1	YLD124_chi.LOD1	0.10243
	1086	H	-5.434535	-29.316389	21.471046	H	1	YLD124_chi.LOD1	0.086844
	1087	C	1.925622	-28.513142	15.872136	C	1	YLD124_chi.LOD1	-0.477029
	1088	H	1.847806	-29.521019	16.294396	H	1	YLD124_chi.LOD1	0.107463
	1089	H	1.519685	-28.549934	14.854595	H	1	YLD124_chi.LOD1	0.106999
	1090	H	2.990290	-28.262467	15.796896	H	1	YLD124_chi.LOD1	0.090486
	1091	C	0.073649	-26.157630	15.787661	C	1	YLD124_chi.LOD1	-0.470103
	1092	H	0.263023	-26.387780	14.732032	H	1	YLD124_chi.LOD1	0.112461
	1093	H	-1.009897	-26.197054	15.948213	H	1	YLD124_chi.LOD1	0.098066
	1094	H	0.389225	-25.120710	15.953977	H	1	YLD124_chi.LOD1	0.083138
	1095	Si	1.009980	-27.295100	16.878000	Si	1	YLD124_chi.LOD1	0.770043
	1096	Si	-4.054860	-27.552200	20.472400	Si	1	YLD124_chi.LOD1	0.73989
	1097	H	-1.027261	-29.158653	16.281766	H	1	YLD124_chi.LOD1	-0.017464
	1098	H	-2.236881	-30.458308	20.170561	H	1	YLD124_chi.LOD1	0.058354
	1099	H	-1.784775	-28.492215	21.709777	H	1	YLD124_chi.LOD1	-0.04034
	1100	H	-0.642236	-28.104736	20.409343	H	1	YLD124_chi.LOD1	-0.007901
	1101	H	-0.880732	-30.493314	21.278511	H	1	YLD124_chi.LOD1	0.028132
	1102	H	-0.415942	-30.971301	17.357334	H	1	YLD124_chi.LOD1	-0.011538
	1103	H	-1.989230	-30.746169	18.091846	H	1	YLD124_chi.LOD1	0.020652
	1104	H	-2.030015	-28.592450	17.627558	H	1	YLD124_chi.LOD1	-0.064856
	1105	C	9.911971	-30.757037	20.611055	C	1	YLD124_chi.LOD1	-0.299384
	1106	H	9.493176	-29.993124	21.277072	H	1	YLD124_chi.LOD1	0.066854
	1107	H	11.004625	-30.683170	20.666830	H	1	YLD124_chi.LOD1	0.072315
	1108	H	9.611689	-30.510872	19.587798	H	1	YLD124_chi.LOD1	0.027971
	1109	C	9.876487	-32.421597	22.484713	C	1	YLD124_chi.LOD1	-0.427943
	1110	H	9.432003	-31.685503	23.165487	H	1	YLD124_chi.LOD1	0.089807
	1111	H	9.572373	-33.419455	22.823751	H	1	YLD124_chi.LOD1	0.091303
	1112	H	10.966206	-32.350503	22.585205	H	1	YLD124_chi.LOD1	0.089757
	1113	C	13.496277	-37.208124	18.350874	C	1	YLD124_chi.LOD1	-0.158763
	1114	C	14.374855	-35.737470	20.052044	C	1	YLD124_chi.LOD1	-0.147279
	1115	C	13.071165	-38.098813	19.332464	C	1	YLD124_chi.LOD1	-0.065518
	1116	H	13.321054	-37.442754	17.305278	H	1	YLD124_chi.LOD1	0.080042
	1117	C	13.939034	-36.629136	21.034659	C	1	YLD124_chi.LOD1	-0.090746
	1118	H	14.891536	-34.837239	20.358130	H	1	YLD124_chi.LOD1	0.09871
	1119	C	13.288428	-37.809706	20.681177	C	1	YLD124_chi.LOD1	-0.09866
	1120	H	12.570192	-39.017877	19.042338	H	1	YLD124_chi.LOD1	0.104949
	1121	H	12.956390	-38.502615	21.449256	H	1	YLD124_chi.LOD1	0.102095
	1122	H	14.121510	-36.397646	22.080281	H	1	YLD124_chi.LOD1	0.105434
	1123	F	14.240993	-33.014217	18.628834	F	1	YLD124_chi.LOD1	-0.19867
	1124	F	15.646366	-33.038989	16.978205	F	1	YLD124_chi.LOD1	-0.154403
	1125	F	16.219011	-33.880015	18.901433	F	1	YLD124_chi.LOD1	-0.186491
	1126	C	14.926061	-29.527813	-25.958883	C	2	YLD124_chi.LOD1	-0.150166
	1127	C	15.721425	-29.775356	-27.038316	C	2	YLD124_chi.LOD1	-0.190723
	1128	H	15.900373	-28.974569	-27.754163	H	2	YLD124_chi.LOD1	0.123134
	1129	H	14.739345	-30.342032	-25.260645	H	2	YLD124_chi.LOD1	0.111619
	1130	N	12.144177	-24.751339	-24.544357	N	2	YLD124_chi.LOD1	-0.506176
	1131	C	12.850927	-25.894868	-24.876934	C	2	YLD124_chi.LOD1	0.404469
	1132	C	13.705628	-25.938393	-26.011528	C	2	YLD124_chi.LOD1	-0.281203
	1133	C	14.374692	-27.094658	-26.367601	C	2	YLD124_chi.LOD1	-0.112562
	1134	C	14.258834	-28.287957	-25.621974	C	2	YLD124_chi.LOD1	0.131862
	1135	C	13.430778	-28.231907	-24.482050	C	2	YLD124_chi.LOD1	-0.140167
	1136	C	12.750891	-27.083978	-24.111276	C	2	YLD124_chi.LOD1	-0.26473
	1137	H	13.850047	-25.056135	-26.622473	H	2	YLD124_chi.LOD1	0.177954
	1138	H	15.009366	-27.066463	-27.248456	H	2	YLD124_chi.LOD1	0.098859
	1139	H	13.318538	-29.123569	-23.868907	H	2	YLD124_chi.LOD1	0.103807
	1140	H	12.138277	-27.114893	-23.218893	H	2	YLD124_chi.LOD1	0.161189
	1141	C	16.340504	-31.031841	-27.362085	C	2	YLD124_chi.LOD1	0.100982
	1142	C	17.063211	-31.147145	-28.527887	C	2	YLD124_chi.LOD1	-0.303623
	1143	C	16.178567	-32.237826	-26.460707	C	2	YLD124_chi.LOD1	0.096207
	1144	H	17.177305	-30.265112	-29.156283	H	2	YLD124_chi.LOD1	0.124941
	1145	C	17.274426	-33.313291	-26.646147	C	2	YLD124_chi.LOD1	0.409462
	1146	H	16.163377	-31.922478	-25.410532	H	2	YLD124_chi.LOD1	-0.020765
	1147	C	17.434446	-33.603091	-28.156952	C	2	YLD124_chi.LOD1	-0.014279
	1148	H	16.515850	-34.088765	-28.521163	H	2	YLD124_chi.LOD1	-0.02177
	1149	C	17.667143	-32.356618	-28.984020	C	2	YLD124_chi.LOD1	0.179445
	1150	C	18.331904	-32.220717	-30.162517	C	2	YLD124_chi.LOD1	-0.27725
	1151	H	18.411620	-31.263906	-30.678280	H	2	YLD124_chi.LOD1	0.132087
	1152	C	18.958299	-33.326899	-30.779988	C	2	YLD124_chi.LOD1	0.141075
	1153	C	19.639492	-33.231993	-31.976448	C	2	YLD124_chi.LOD1	-0.327608
	1154	H	18.884287	-34.294185	-30.296741	H	2	YLD124_chi.LOD1	-0.027316
	1155	C	20.280735	-34.279464	-32.672665	C	2	YLD124_chi.LOD1	0.260653
	1156	C	20.897944	-34.166589	-33.913372	C	2	YLD124_chi.LOD1	-0.287606
	1157	C	20.431477	-35.739109	-32.235534	C	2	YLD124_chi.LOD1	-0.056548
	1158	C	21.399553	-35.453823	-34.313748	C	2	YLD124_chi.LOD1	0.509074
	1159	C	20.975221	-32.952231	-34.641363	C	2	YLD124_chi.LOD1	0.396907
	1160	O	21.093154	-36.372123	-33.366198	O	2	YLD124_chi.LOD1	-0.366332
	1161	C	19.140719	-36.571577	-31.932283	C	2	YLD124_chi.LOD1	0.253806
	1162	C	21.492998	-35.985321	-31.017338	C	2	YLD124_chi.LOD1	0.598114
	1163	C	22.073873	-35.870800	-35.440147	C	2	YLD124_chi.LOD1	-0.43234
	1164	N	20.984299	-31.911986	-35.165135	N	2	YLD124_chi.LOD1	-0.430249
	1165	C	22.424866	-34.978635	-36.493982	C	2	YLD124_chi.LOD1	0.437474
	1166	C	22.445835	-37.240882	-35.581716	C	2	YLD124_chi.LOD1	0.49223
	1167	N	22.730477	-34.284776	-37.378131	N	2	YLD124_chi.LOD1	-0.451871
	1168	N	22.753852	-38.356387	-35.711366	N	2	YLD124_chi.LOD1	-0.482758
	1169	H	19.683844	-32.258949	-32.462623	H	2	YLD124_chi.LOD1	0.157364
	1170	H	18.242531	-34.327681	-28.301668	H	2	YLD124_chi.LOD1	0.040059
	1171	H	15.192518	-32.688487	-26.653850	H	2	YLD124_chi.LOD1	-0.024244
	1172	C	12.283789	-23.531003	-25.256576	C	2	YLD124_chi.LOD1	0.240322
	1173	C	11.329775	-24.669650	-23.371934	C	2	YLD124_chi.LOD1	0.113854
	1174	C	11.904865	-24.408844	-22.090942	C	2	YLD124_chi.LOD1	0.29958
	1175	C	13.397719	-22.704892	-24.940042	C	2	YLD124_chi.LOD1	0.285774
	1176	O	14.370900	-23.408500	-24.328500	O	2	YLD124_chi.LOD1	-0.61175
	1177	O	12.415700	-25.494600	-21.478000	O	2	YLD124_chi.LOD1	-0.599726
	1178	C	13.125068	-27.650897	-19.774014	C	2	YLD124_chi.LOD1	0.275329
	1179	C	16.923719	-24.511691	-23.265885	C	2	YLD124_chi.LOD1	0.358728
	1180	C	16.933137	-25.987963	-23.720800	C	2	YLD124_chi.LOD1	-0.337707
	1181	H	17.493621	-26.129182	-24.653326	H	2	YLD124_chi.LOD1	0.059176
	1182	H	17.409936	-26.619311	-22.957290	H	2	YLD124_chi.LOD1	0.075606
	1183	H	15.920089	-26.379047	-23.876193	H	2	YLD124_chi.LOD1	0.056098
	1184	C	12.351086	-28.545695	-18.780815	C	2	YLD124_chi.LOD1	-0.311529
	1185	H	12.817110	-29.539758	-18.722355	H	2	YLD124_chi.LOD1	0.071087
	1186	H	12.347429	-28.130758	-17.765109	H	2	YLD124_chi.LOD1	0.058721
	1187	H	11.307770	-28.695902	-19.085136	H	2	YLD124_chi.LOD1	0.056179
	1188	C	16.164565	-24.399589	-21.925818	C	2	YLD124_chi.LOD1	-0.279876
	1189	H	16.115287	-23.362657	-21.572809	H	2	YLD124_chi.LOD1	0.048405
	1190	H	15.136819	-24.773725	-22.003735	H	2	YLD124_chi.LOD1	0.047411
	1191	H	16.669397	-24.991350	-21.148538	H	2	YLD124_chi.LOD1	0.054899
	1192	C	18.380799	-24.047299	-23.051550	C	2	YLD124_chi.LOD1	-0.273001
	1193	H	18.879145	-24.684463	-22.306545	H	2	YLD124_chi.LOD1	0.0526
	1194	H	18.974971	-24.101700	-23.972224	H	2	YLD124_chi.LOD1	0.034813
	1195	H	18.431676	-23.017166	-22.678748	H	2	YLD124_chi.LOD1	0.061699
	1196	C	13.107791	-28.310530	-21.170115	C	2	YLD124_chi.LOD1	-0.202774
	1197	H	12.086624	-28.456409	-21.543668	H	2	YLD124_chi.LOD1	0.027959
	1198	H	13.652477	-27.709575	-21.906790	H	2	YLD124_chi.LOD1	0.030756
	1199	H	13.583938	-29.300850	-21.129331	H	2	YLD124_chi.LOD1	0.045471
	1200	C	14.589328	-27.519203	-19.301491	C	2	YLD124_chi.LOD1	-0.266625
	1201	H	14.658055	-27.088218	-18.295092	H	2	YLD124_chi.LOD1	0.041283
	1202	H	15.068556	-28.508157	-19.265175	H	2	YLD124_chi.LOD1	0.059445
	1203	H	15.176668	-26.888950	-19.978414	H	2	YLD124_chi.LOD1	0.054675
	1204	C	13.192665	-24.684848	-18.828308	C	2	YLD124_chi.LOD1	-0.410828
	1205	H	12.975745	-24.807865	-17.761278	H	2	YLD124_chi.LOD1	0.093855
	1206	H	14.278853	-24.767503	-18.957664	H	2	YLD124_chi.LOD1	0.090546
	1207	H	12.912861	-23.662294	-19.109366	H	2	YLD124_chi.LOD1	0.070213
	1208	C	10.542294	-25.959313	-19.341426	C	2	YLD124_chi.LOD1	-0.460074
	1209	H	10.419853	-25.665685	-18.291657	H	2	YLD124_chi.LOD1	0.099819
	1210	H	9.930642	-25.282465	-19.948284	H	2	YLD124_chi.LOD1	0.10243
	1211	H	10.123846	-26.967955	-19.442663	H	2	YLD124_chi.LOD1	0.086844
	1212	C	16.229195	-24.137686	-26.254338	C	2	YLD124_chi.LOD1	-0.477029
	1213	H	15.286797	-24.560385	-26.619560	H	2	YLD124_chi.LOD1	0.107463
	1214	H	16.541941	-23.365462	-26.966651	H	2	YLD124_chi.LOD1	0.106999
	1215	H	16.983255	-24.933325	-26.273615	H	2	YLD124_chi.LOD1	0.090486
	1216	C	16.678321	-21.705462	-24.566147	C	2	YLD124_chi.LOD1	-0.470103
	1217	H	17.614678	-21.646389	-23.997876	H	2	YLD124_chi.LOD1	0.112461
	1218	H	16.870207	-21.303143	-25.567508	H	2	YLD124_chi.LOD1	0.098066
	1219	H	15.961349	-21.034358	-24.078272	H	2	YLD124_chi.LOD1	0.083138
	1220	Si	16.038000	-23.422800	-24.585200	Si	2	YLD124_chi.LOD1	0.770043
	1221	Si	12.303100	-25.919700	-19.849200	Si	2	YLD124_chi.LOD1	0.73989
	1222	H	13.797533	-22.229696	-25.847644	H	2	YLD124_chi.LOD1	-0.017464
	1223	H	10.529516	-23.949302	-23.564006	H	2	YLD124_chi.LOD1	0.058354
	1224	H	12.709787	-23.685921	-22.286208	H	2	YLD124_chi.LOD1	-0.04034
	1225	H	11.175893	-23.920741	-21.426736	H	2	YLD124_chi.LOD1	-0.007901
	1226	H	10.843484	-25.642206	-23.242416	H	2	YLD124_chi.LOD1	0.028132
	1227	H	12.355856	-23.781809	-26.319778	H	2	YLD124_chi.LOD1	-0.011538
	1228	H	11.360282	-22.956883	-25.139202	H	2	YLD124_chi.LOD1	0.020652
	1229	H	13.056423	-21.901254	-24.272798	H	2	YLD124_chi.LOD1	-0.064856
	1230	C	18.566330	-32.767097	-26.061019	C	2	YLD124_chi.LOD1	-0.299384
	1231	H	18.465384	-32.587019	-24.984027	H	2	YLD124_chi.LOD1	0.066854
	1232	H	19.349214	-33.522355	-26.199357	H	2	YLD124_chi.LOD1	0.072315
	1233	H	18.911664	-31.838158	-26.525389	H	2	YLD124_chi.LOD1	0.027971
	1234	C	16.801798	-34.542998	-25.937669	C	2	YLD124_chi.LOD1	-0.427943
	1235	H	16.660477	-34.365240	-24.864691	H	2	YLD124_chi.LOD1	0.089807
	1236	H	15.859328	-34.933619	-26.340558	H	2	YLD124_chi.LOD1	0.091303
	1237	H	17.563173	-35.324691	-26.046776	H	2	YLD124_chi.LOD1	0.089757
	1238	C	18.112180	-36.378922	-32.866945	C	2	YLD124_chi.LOD1	-0.158763
	1239	C	18.924418	-37.445304	-30.859010	C	2	YLD124_chi.LOD1	-0.147279
	1240	C	16.893500	-37.037531	-32.730490	C	2	YLD124_chi.LOD1	-0.065518
	1241	H	18.266514	-35.711028	-33.709039	H	2	YLD124_chi.LOD1	0.080042
	1242	C	17.697289	-38.097572	-30.720303	C	2	YLD124_chi.LOD1	-0.090746
	1243	H	19.699729	-37.633694	-30.127939	H	2	YLD124_chi.LOD1	0.09871
	1244	C	16.680241	-37.898356	-31.651920	C	2	YLD124_chi.LOD1	-0.09866
	1245	H	16.111531	-36.877089	-33.467110	H	2	YLD124_chi.LOD1	0.104949
	1246	H	15.729476	-38.412535	-31.542445	H	2	YLD124_chi.LOD1	0.102095
	1247	H	17.546120	-38.771695	-29.881903	H	2	YLD124_chi.LOD1	0.105434
	1248	F	22.027334	-34.784613	-30.747396	F	2	YLD124_chi.LOD1	-0.19867
	1249	F	22.496347	-36.814625	-31.346848	F	2	YLD124_chi.LOD1	-0.154403
	1250	F	20.930620	-36.452393	-29.880102	F	2	YLD124_chi.LOD1	-0.186491
	1251	C	7.219126	25.863381	-17.014386	C	3	YLD124_chi.LOD1	-0.150166
	1252	C	7.639090	26.220010	-15.767187	C	3	YLD124_chi.LOD1	-0.190723
	1253	H	8.467832	26.919849	-15.671626	H	3	YLD124_chi.LOD1	0.123134
	1254	H	6.402275	25.148299	-17.096640	H	3	YLD124_chi.LOD1	0.111619
	1255	N	9.264172	27.443499	-22.101180	N	3	YLD124_chi.LOD1	-0.506176
	1256	C	8.752151	27.093192	-20.863084	C	3	YLD124_chi.LOD1	0.404469
	1257	C	9.275361	27.638559	-19.659532	C	3	YLD124_chi.LOD1	-0.281203
	1258	C	8.793128	27.252954	-18.422544	C	3	YLD124_chi.LOD1	-0.112562
	1259	C	7.750589	26.310933	-18.284499	C	3	YLD124_chi.LOD1	0.131862
	1260	C	7.216821	25.792995	-19.482445	C	3	YLD124_chi.LOD1	-0.140167
	1261	C	7.688476	26.165230	-20.730021	C	3	YLD124_chi.LOD1	-0.26473
	1262	H	10.068672	28.374853	-19.691446	H	3	YLD124_chi.LOD1	0.177954
	1263	H	9.237472	27.701665	-17.538955	H	3	YLD124_chi.LOD1	0.098859
	1264	H	6.403986	25.071940	-19.427830	H	3	YLD124_chi.LOD1	0.103807
	1265	H	7.224261	25.729757	-21.606072	H	3	YLD124_chi.LOD1	0.161189
	1266	C	7.110941	25.727443	-14.524096	C	3	YLD124_chi.LOD1	0.100982
	1267	C	7.686265	26.129809	-13.340120	C	3	YLD124_chi.LOD1	-0.303623
	1268	C	5.958148	24.745834	-14.499273	C	3	YLD124_chi.LOD1	0.096207
	1269	H	8.506534	26.845005	-13.379270	H	3	YLD124_chi.LOD1	0.124941
	1270	C	5.188787	24.713055	-13.158031	C	3	YLD124_chi.LOD1	0.409462
	1271	H	5.253663	24.973300	-15.308286	H	3	YLD124_chi.LOD1	-0.020765
	1272	C	6.210698	24.599827	-12.002610	C	3	YLD124_chi.LOD1	-0.014279
	1273	H	6.696977	23.613543	-12.058522	H	3	YLD124_chi.LOD1	-0.02177
	1274	C	7.290232	25.660018	-12.052460	C	3	YLD124_chi.LOD1	0.179445
	1275	C	8.004838	26.205298	-11.032172	C	3	YLD124_chi.LOD1	-0.27725
	1276	H	8.780640	26.952243	-11.199671	H	3	YLD124_chi.LOD1	0.132087
	1277	C	7.771274	25.824804	-9.691294	C	3	YLD124_chi.LOD1	0.141075
	1278	C	8.476213	26.351454	-8.628163	C	3	YLD124_chi.LOD1	-0.327608
	1279	H	7.014734	25.073886	-9.495287	H	3	YLD124_chi.LOD1	-0.027316
	1280	C	8.323716	26.023246	-7.263565	C	3	YLD124_chi.LOD1	0.260653
	1281	C	9.099135	26.518748	-6.221334	C	3	YLD124_chi.LOD1	-0.287606
	1282	C	7.303170	25.067728	-6.639190	C	3	YLD124_chi.LOD1	-0.056548
	1283	C	8.670242	25.922640	-4.984568	C	3	YLD124_chi.LOD1	0.509074
	1284	C	10.152890	27.449779	-6.404058	C	3	YLD124_chi.LOD1	0.396907
	1285	O	7.661955	25.051722	-5.229246	O	3	YLD124_chi.LOD1	-0.366332
	1286	C	7.271004	23.579193	-7.123090	C	3	YLD124_chi.LOD1	0.253806
	1287	C	5.766837	25.625095	-6.610315	C	3	YLD124_chi.LOD1	0.598114
	1288	C	9.109738	26.072575	-3.687759	C	3	YLD124_chi.LOD1	-0.43234
	1289	N	11.000137	28.208949	-6.653785	N	3	YLD124_chi.LOD1	-0.430249
	1290	C	10.173171	26.954204	-3.339099	C	3	YLD124_chi.LOD1	0.437474
	1291	C	8.494894	25.329329	-2.636534	C	3	YLD124_chi.LOD1	0.49223
	1292	N	11.037917	27.661732	-3.010196	N	3	YLD124_chi.LOD1	-0.451871
	1293	N	8.003599	24.727617	-1.769005	N	3	YLD124_chi.LOD1	-0.482758
	1294	H	9.250264	27.086201	-8.842967	H	3	YLD124_chi.LOD1	0.157364
	1295	H	5.678147	24.625417	-11.046205	H	3	YLD124_chi.LOD1	0.040059
	1296	H	6.350880	23.740143	-14.716159	H	3	YLD124_chi.LOD1	-0.024244
	1297	C	10.281575	28.421712	-22.254661	C	3	YLD124_chi.LOD1	0.240322
	1298	C	8.704561	26.949136	-23.320426	C	3	YLD124_chi.LOD1	0.113854
	1299	C	7.481420	27.452209	-23.866432	C	3	YLD124_chi.LOD1	0.29958
	1300	C	9.891271	29.787280	-22.182459	C	3	YLD124_chi.LOD1	0.285774
	1301	O	8.602730	29.903800	-21.805200	O	3	YLD124_chi.LOD1	-0.61175
	1302	O	6.416060	26.630700	-23.791100	O	3	YLD124_chi.LOD1	-0.599726
	1303	C	5.753149	23.856682	-23.840451	C	3	YLD124_chi.LOD1	0.275329
	1304	C	5.859501	31.057891	-21.817289	C	3	YLD124_chi.LOD1	0.358728
	1305	C	4.960783	31.884248	-20.870794	C	3	YLD124_chi.LOD1	-0.337707
	1306	H	5.184861	32.957091	-20.920654	H	3	YLD124_chi.LOD1	0.059176
	1307	H	3.903163	31.760957	-21.144879	H	3	YLD124_chi.LOD1	0.075606
	1308	H	5.061926	31.569032	-19.824960	H	3	YLD124_chi.LOD1	0.056098
	1309	C	6.956134	23.651073	-22.893505	C	3	YLD124_chi.LOD1	-0.311529
	1310	H	6.807422	22.750694	-22.280349	H	3	YLD124_chi.LOD1	0.071087
	1311	H	7.896958	23.516393	-23.441735	H	3	YLD124_chi.LOD1	0.058721
	1312	H	7.088318	24.493373	-22.203042	H	3	YLD124_chi.LOD1	0.056179
	1313	C	5.452475	29.570716	-21.731841	C	3	YLD124_chi.LOD1	-0.279876
	1314	H	6.078865	28.940933	-22.374710	H	3	YLD124_chi.LOD1	0.048405
	1315	H	5.528998	29.182306	-20.709298	H	3	YLD124_chi.LOD1	0.047411
	1316	H	4.409177	29.439681	-22.053648	H	3	YLD124_chi.LOD1	0.054899
	1317	C	5.642972	31.549621	-23.265045	C	3	YLD124_chi.LOD1	-0.273001
	1318	H	4.584175	31.454339	-23.546522	H	3	YLD124_chi.LOD1	0.0526
	1319	H	5.917263	32.604259	-23.392107	H	3	YLD124_chi.LOD1	0.034813
	1320	H	6.221687	30.962089	-23.987983	H	3	YLD124_chi.LOD1	0.061699
	1321	C	4.467264	24.012841	-22.999841	C	3	YLD124_chi.LOD1	-0.202774
	1322	H	4.527199	24.864159	-22.310443	H	3	YLD124_chi.LOD1	0.027959
	1323	H	3.585554	24.155713	-23.634424	H	3	YLD124_chi.LOD1	0.030756
	1324	H	4.298378	23.112647	-22.391367	H	3	YLD124_chi.LOD1	0.045471
	1325	C	5.607929	22.617669	-24.750636	C	3	YLD124_chi.LOD1	-0.266625
	1326	H	6.511763	22.438045	-25.345723	H	3	YLD124_chi.LOD1	0.041283
	1327	H	5.433744	21.717330	-24.143956	H	3	YLD124_chi.LOD1	0.059445
	1328	H	4.764636	22.721687	-25.442337	H	3	YLD124_chi.LOD1	0.054675
	1329	C	4.533244	25.893537	-25.838498	C	3	YLD124_chi.LOD1	-0.410828
	1330	H	4.460534	25.357877	-26.791662	H	3	YLD124_chi.LOD1	0.093855
	1331	H	3.624751	25.673703	-25.264318	H	3	YLD124_chi.LOD1	0.090546
	1332	H	4.521767	26.967953	-26.058494	H	3	YLD124_chi.LOD1	0.070213
	1333	C	7.434373	25.223277	-26.081936	C	3	YLD124_chi.LOD1	-0.460074
	1334	H	8.126488	24.437997	-25.754008	H	3	YLD124_chi.LOD1	0.099819
	1335	H	7.083630	24.957880	-27.085460	H	3	YLD124_chi.LOD1	0.10243
	1336	H	8.016826	26.148671	-26.166212	H	3	YLD124_chi.LOD1	0.086844
	1337	C	7.887273	31.233798	-19.478209	C	3	YLD124_chi.LOD1	-0.477029
	1338	H	7.135900	30.594866	-19.001368	H	3	YLD124_chi.LOD1	0.107463
	1339	H	8.874080	30.850026	-19.194553	H	3	YLD124_chi.LOD1	0.106999
	1340	H	7.787776	32.240709	-19.056014	H	3	YLD124_chi.LOD1	0.090486
	1341	C	8.428364	32.770813	-21.991186	C	3	YLD124_chi.LOD1	-0.470103
	1342	H	7.748043	33.223831	-22.722706	H	3	YLD124_chi.LOD1	0.112461
	1343	H	8.652985	33.528129	-21.231304	H	3	YLD124_chi.LOD1	0.098066
	1344	H	9.365462	32.548841	-22.515618	H	3	YLD124_chi.LOD1	0.083138
	1345	Si	7.704940	31.237400	-21.294900	Si	3	YLD124_chi.LOD1	0.770043
	1346	Si	6.040700	25.423600	-24.908400	Si	3	YLD124_chi.LOD1	0.73989
	1347	H	10.535989	30.325839	-21.472743	H	3	YLD124_chi.LOD1	-0.017464
	1348	H	9.474463	27.004520	-24.095276	H	3	YLD124_chi.LOD1	0.058354
	1349	H	7.282448	28.364154	-23.285559	H	3	YLD124_chi.LOD1	-0.04034
	1350	H	7.639292	27.754351	-24.912664	H	3	YLD124_chi.LOD1	-0.007901
	1351	H	8.489144	25.885181	-23.176502	H	3	YLD124_chi.LOD1	0.028132
	1352	H	11.029487	28.239717	-21.476201	H	3	YLD124_chi.LOD1	-0.011538
	1353	H	10.785177	28.247985	-23.209888	H	3	YLD124_chi.LOD1	0.020652
	1354	H	10.025219	30.255997	-23.167292	H	3	YLD124_chi.LOD1	-0.064856
	1355	C	4.389690	26.001095	-13.048296	C	3	YLD124_chi.LOD1	-0.299384
	1356	H	3.644561	26.071518	-13.849766	H	3	YLD124_chi.LOD1	0.066854
	1357	H	3.850172	25.987133	-12.093737	H	3	YLD124_chi.LOD1	0.072315
	1358	H	4.998315	26.910304	-13.075464	H	3	YLD124_chi.LOD1	0.027971
	1359	C	4.314605	23.499564	-13.187273	C	3	YLD124_chi.LOD1	-0.427943
	1360	H	3.589124	23.540580	-14.008764	H	3	YLD124_chi.LOD1	0.089807
	1361	H	4.881583	22.565784	-13.285992	H	3	YLD124_chi.LOD1	0.091303
	1362	H	3.749961	23.451845	-12.248370	H	3	YLD124_chi.LOD1	0.089757
	1363	C	8.543152	23.006676	-7.272974	C	3	YLD124_chi.LOD1	-0.158763
	1364	C	6.141607	22.803507	-7.414417	C	3	YLD124_chi.LOD1	-0.147279
	1365	C	8.685676	21.692742	-7.709818	C	3	YLD124_chi.LOD1	-0.065518
	1366	H	9.428593	23.591904	-7.043786	H	3	YLD124_chi.LOD1	0.080042
	1367	C	6.288595	21.488413	-7.861029	C	3	YLD124_chi.LOD1	-0.090746
	1368	H	5.143504	23.203862	-7.293715	H	3	YLD124_chi.LOD1	0.09871
	1369	C	7.556072	20.928575	-8.009575	C	3	YLD124_chi.LOD1	-0.09866
	1370	H	9.679506	21.267437	-7.815843	H	3	YLD124_chi.LOD1	0.104949
	1371	H	7.664695	19.903260	-8.351991	H	3	YLD124_chi.LOD1	0.102095
	1372	H	5.402168	20.900792	-8.082749	H	3	YLD124_chi.LOD1	0.105434
	1373	F	5.560423	26.285668	-7.759714	F	3	YLD124_chi.LOD1	-0.19867
	1374	F	5.614993	26.499912	-5.603007	F	3	YLD124_chi.LOD1	-0.154403
	1375	F	4.797989	24.689691	-6.491636	F	3	YLD124_chi.LOD1	-0.186491
	1376	C	1.975814	-23.319473	24.670523	C	4	YLD124_chi.LOD1	-0.150166
	1377	C	1.564449	-23.415200	25.966931	C	4	YLD124_chi.LOD1	-0.190723
	1378	H	1.945802	-22.699591	26.693699	H	4	YLD124_chi.LOD1	0.123134
	1379	H	1.602292	-24.052488	23.957415	H	4	YLD124_chi.LOD1	0.111619
	1380	N	5.647079	-19.644493	22.310269	N	4	YLD124_chi.LOD1	-0.506176
	1381	C	4.730779	-20.509601	22.884504	C	4	YLD124_chi.LOD1	0.404469
	1382	C	4.361289	-20.402112	24.252581	C	4	YLD124_chi.LOD1	-0.281203
	1383	C	3.481000	-21.294962	24.835068	C	4	YLD124_chi.LOD1	-0.112562
	1384	C	2.891559	-22.350612	24.106021	C	4	YLD124_chi.LOD1	0.131862
	1385	C	3.240722	-22.436646	22.742596	C	4	YLD124_chi.LOD1	-0.140167
	1386	C	4.122332	-21.553386	22.142530	C	4	YLD124_chi.LOD1	-0.26473
	1387	H	4.766527	-19.609114	24.868557	H	4	YLD124_chi.LOD1	0.177954
	1388	H	3.241790	-21.163688	25.886285	H	4	YLD124_chi.LOD1	0.098859
	1389	H	2.803423	-23.227107	22.136342	H	4	YLD124_chi.LOD1	0.103807
	1390	H	4.337507	-21.678178	21.088621	H	4	YLD124_chi.LOD1	0.161189
	1391	C	0.679865	-24.414345	26.501779	C	4	YLD124_chi.LOD1	0.100982
	1392	C	0.409162	-24.422818	27.851351	C	4	YLD124_chi.LOD1	-0.303623
	1393	C	0.072610	-25.477743	25.610976	C	4	YLD124_chi.LOD1	0.096207
	1394	H	0.846539	-23.642628	28.472547	H	4	YLD124_chi.LOD1	0.124941
	1395	C	-1.206103	-26.127613	26.189323	C	4	YLD124_chi.LOD1	0.409462
	1396	H	-0.157178	-25.055665	24.625284	H	4	YLD124_chi.LOD1	-0.020765
	1397	C	-0.935407	-26.534992	27.656595	C	4	YLD124_chi.LOD1	-0.014279
	1398	H	-0.192718	-27.347824	27.664659	H	4	YLD124_chi.LOD1	-0.02177
	1399	C	-0.400009	-25.400228	28.503674	C	4	YLD124_chi.LOD1	0.179445
	1400	C	-0.524504	-25.196258	29.842253	C	4	YLD124_chi.LOD1	-0.27725
	1401	H	-0.068449	-24.343877	30.345555	H	4	YLD124_chi.LOD1	0.132087
	1402	C	-1.260423	-26.090362	30.652366	C	4	YLD124_chi.LOD1	0.141075
	1403	C	-1.407972	-25.921246	32.014047	C	4	YLD124_chi.LOD1	-0.327608
	1404	H	-1.714156	-26.954682	30.181490	H	4	YLD124_chi.LOD1	-0.027316
	1405	C	-2.108473	-26.765635	32.902533	C	4	YLD124_chi.LOD1	0.260653
	1406	C	-2.178947	-26.607317	34.282030	C	4	YLD124_chi.LOD1	-0.287606
	1407	C	-2.920918	-28.017298	32.559536	C	4	YLD124_chi.LOD1	-0.056548
	1408	C	-2.946869	-27.685036	34.845682	C	4	YLD124_chi.LOD1	0.509074
	1409	C	-1.554407	-25.543021	34.980477	C	4	YLD124_chi.LOD1	0.396907
	1410	O	-3.339706	-28.524157	33.857470	O	4	YLD124_chi.LOD1	-0.366332
	1411	C	-2.209945	-29.195234	31.812750	C	4	YLD124_chi.LOD1	0.253806
	1412	C	-4.347068	-27.728640	31.815100	C	4	YLD124_chi.LOD1	0.598114
	1413	C	-3.299205	-27.985901	36.142867	C	4	YLD124_chi.LOD1	-0.43234
	1414	N	-1.003970	-24.638154	35.465004	N	4	YLD124_chi.LOD1	-0.430249
	1415	C	-2.918302	-27.169384	37.246468	C	4	YLD124_chi.LOD1	0.437474
	1416	C	-4.073294	-29.152161	36.418811	C	4	YLD124_chi.LOD1	0.49223
	1417	N	-2.628326	-26.531410	38.176769	N	4	YLD124_chi.LOD1	-0.451871
	1418	N	-4.703122	-30.101780	36.658762	N	4	YLD124_chi.LOD1	-0.482758
	1419	H	-0.925443	-25.062086	32.476818	H	4	YLD124_chi.LOD1	0.157364
	1420	H	-1.850621	-26.951489	28.090056	H	4	YLD124_chi.LOD1	0.040059
	1421	H	0.828190	-26.259281	25.434935	H	4	YLD124_chi.LOD1	-0.024244
	1422	C	6.219061	-18.548060	23.008632	C	4	YLD124_chi.LOD1	0.240322
	1423	C	5.974960	-19.711097	20.920494	C	4	YLD124_chi.LOD1	0.113854
	1424	C	5.012538	-19.268373	19.968130	C	4	YLD124_chi.LOD1	0.29958
	1425	C	5.512274	-17.312844	23.021955	C	4	YLD124_chi.LOD1	0.285774
	1426	O	4.177900	-17.500200	23.046400	O	4	YLD124_chi.LOD1	-0.61175
	1427	O	3.782950	-19.757000	20.223000	O	4	YLD124_chi.LOD1	-0.599726
	1428	C	1.001188	-20.047172	19.674988	C	4	YLD124_chi.LOD1	0.275329
	1429	C	2.677990	-15.156326	22.015441	C	4	YLD124_chi.LOD1	0.358728
	1430	C	2.152151	-13.827992	22.603179	C	4	YLD124_chi.LOD1	-0.337707
	1431	H	2.861408	-13.379712	23.310067	H	4	YLD124_chi.LOD1	0.059176
	1432	H	1.987099	-13.094710	21.800721	H	4	YLD124_chi.LOD1	0.075606
	1433	H	1.195555	-13.956645	23.124458	H	4	YLD124_chi.LOD1	0.056098
	1434	C	0.691848	-20.565601	21.096851	C	4	YLD124_chi.LOD1	-0.311529
	1435	H	-0.322127	-20.265969	21.398236	H	4	YLD124_chi.LOD1	0.071087
	1436	H	0.736418	-21.660198	21.157800	H	4	YLD124_chi.LOD1	0.058721
	1437	H	1.383969	-20.159906	21.845224	H	4	YLD124_chi.LOD1	0.056179
	1438	C	1.654196	-15.698804	20.994547	C	4	YLD124_chi.LOD1	-0.279876
	1439	H	1.977313	-16.654183	20.564295	H	4	YLD124_chi.LOD1	0.048405
	1440	H	0.667124	-15.854130	21.446071	H	4	YLD124_chi.LOD1	0.047411
	1441	H	1.525803	-14.987793	20.165583	H	4	YLD124_chi.LOD1	0.054899
	1442	C	4.011247	-14.884611	21.285183	C	4	YLD124_chi.LOD1	-0.273001
	1443	H	3.867376	-14.134833	20.493670	H	4	YLD124_chi.LOD1	0.0526
	1444	H	4.784459	-14.497248	21.960264	H	4	YLD124_chi.LOD1	0.034813
	1445	H	4.406231	-15.787647	20.804290	H	4	YLD124_chi.LOD1	0.061699
	1446	C	0.894512	-18.506723	19.662762	C	4	YLD124_chi.LOD1	-0.202774
	1447	H	1.590656	-18.040427	20.370966	H	4	YLD124_chi.LOD1	0.027959
	1448	H	1.101551	-18.096077	18.668265	H	4	YLD124_chi.LOD1	0.030756
	1449	H	-0.119731	-18.192927	19.949040	H	4	YLD124_chi.LOD1	0.045471
	1450	C	-0.034865	-20.627812	18.688006	C	4	YLD124_chi.LOD1	-0.266625
	1451	H	-0.027269	-21.724734	18.684062	H	4	YLD124_chi.LOD1	0.041283
	1452	H	-1.049252	-20.310631	18.969830	H	4	YLD124_chi.LOD1	0.059445
	1453	H	0.148446	-20.286225	17.663248	H	4	YLD124_chi.LOD1	0.054675
	1454	C	3.150523	-20.117007	17.437946	C	4	YLD124_chi.LOD1	-0.410828
	1455	H	4.074766	-19.531962	17.372845	H	4	YLD124_chi.LOD1	0.093855
	1456	H	3.270910	-20.999696	16.797840	H	4	YLD124_chi.LOD1	0.090546
	1457	H	2.343375	-19.513979	17.004622	H	4	YLD124_chi.LOD1	0.070213
	1458	C	3.026328	-22.396482	19.364541	C	4	YLD124_chi.LOD1	-0.460074
	1459	H	2.104275	-22.958432	19.171525	H	4	YLD124_chi.LOD1	0.099819
	1460	H	3.793665	-22.773431	18.679252	H	4	YLD124_chi.LOD1	0.10243
	1461	H	3.342343	-22.640831	20.385881	H	4	YLD124_chi.LOD1	0.086844
	1462	C	1.456886	-17.541635	23.588998	C	4	YLD124_chi.LOD1	-0.477029
	1463	H	0.579255	-17.118122	23.088424	H	4	YLD124_chi.LOD1	0.107463
	1464	H	1.657511	-18.517806	23.132523	H	4	YLD124_chi.LOD1	0.106999
	1465	H	1.193503	-17.713169	24.639343	H	4	YLD124_chi.LOD1	0.090486
	1466	C	3.252979	-15.618717	25.019401	C	4	YLD124_chi.LOD1	-0.470103
	1467	H	3.778450	-14.669475	24.858139	H	4	YLD124_chi.LOD1	0.112461
	1468	H	2.347525	-15.404232	25.598669	H	4	YLD124_chi.LOD1	0.098066
	1469	H	3.899727	-16.243538	25.646911	H	4	YLD124_chi.LOD1	0.083138
	1470	Si	2.911770	-16.451100	23.422500	Si	4	YLD124_chi.LOD1	0.770043
	1471	Si	2.767940	-20.592800	19.165900	Si	4	YLD124_chi.LOD1	0.73989
	1472	H	5.815754	-16.692595	23.877872	H	4	YLD124_chi.LOD1	-0.017464
	1473	H	6.919508	-19.181405	20.767322	H	4	YLD124_chi.LOD1	0.058354
	1474	H	4.989904	-18.170789	20.026802	H	4	YLD124_chi.LOD1	-0.04034
	1475	H	5.310418	-19.538758	18.943936	H	4	YLD124_chi.LOD1	-0.007901
	1476	H	6.167830	-20.760788	20.675401	H	4	YLD124_chi.LOD1	0.028132
	1477	H	6.326597	-18.853046	24.054536	H	4	YLD124_chi.LOD1	-0.011538
	1478	H	7.232957	-18.391981	22.629279	H	4	YLD124_chi.LOD1	0.020652
	1479	H	5.785763	-16.766730	22.108447	H	4	YLD124_chi.LOD1	-0.064856
	1480	C	-2.325437	-25.102476	26.110849	C	4	YLD124_chi.LOD1	-0.299384
	1481	H	-2.539451	-24.832262	25.069833	H	4	YLD124_chi.LOD1	0.066854
	1482	H	-3.232190	-25.555331	26.529395	H	4	YLD124_chi.LOD1	0.072315
	1483	H	-2.127188	-24.178611	26.663112	H	4	YLD124_chi.LOD1	0.027971
	1484	C	-1.487107	-27.343863	25.365196	C	4	YLD124_chi.LOD1	-0.427943
	1485	H	-1.665622	-27.090136	24.313242	H	4	YLD124_chi.LOD1	0.089807
	1486	H	-0.675852	-28.081297	25.399995	H	4	YLD124_chi.LOD1	0.091303
	1487	H	-2.394841	-27.824967	25.748857	H	4	YLD124_chi.LOD1	0.089757
	1488	C	-0.929906	-29.486803	32.307814	C	4	YLD124_chi.LOD1	-0.158763
	1489	C	-2.707428	-29.946022	30.739937	C	4	YLD124_chi.LOD1	-0.147279
	1490	C	-0.161076	-30.499571	31.741448	C	4	YLD124_chi.LOD1	-0.065518
	1491	H	-0.532696	-28.919411	33.144064	H	4	YLD124_chi.LOD1	0.080042
	1492	C	-1.929731	-30.955490	30.168358	C	4	YLD124_chi.LOD1	-0.090746
	1493	H	-3.697120	-29.763048	30.342327	H	4	YLD124_chi.LOD1	0.09871
	1494	C	-0.658290	-31.236632	30.664725	C	4	YLD124_chi.LOD1	-0.09866
	1495	H	0.826073	-30.711548	32.141981	H	4	YLD124_chi.LOD1	0.104949
	1496	H	-0.059641	-32.026702	30.220062	H	4	YLD124_chi.LOD1	0.102095
	1497	H	-2.330698	-31.528069	29.336739	H	4	YLD124_chi.LOD1	0.105434
	1498	F	-5.353649	-27.744423	32.702020	F	4	YLD124_chi.LOD1	-0.19867
	1499	F	-4.660565	-28.580518	30.825629	F	4	YLD124_chi.LOD1	-0.154403
	1500	F	-4.284018	-26.487101	31.283747	F	4	YLD124_chi.LOD1	-0.186491
	1501	C	26.459108	0.896153	-29.394168	C	5	YLD124_chi.LOD1	-0.150166
	1502	C	25.899489	-0.331809	-29.199245	C	5	YLD124_chi.LOD1	-0.190723
	1503	H	26.412402	-1.047627	-28.558743	H	5	YLD124_chi.LOD1	0.123134
	1504	H	25.946329	1.596021	-30.051887	H	5	YLD124_chi.LOD1	0.111619
	1505	N	31.368686	2.987401	-27.374964	N	5	YLD124_chi.LOD1	-0.506176
	1506	C	30.162056	2.484165	-27.831646	C	5	YLD124_chi.LOD1	0.404469
	1507	C	29.700558	1.195326	-27.450034	C	5	YLD124_chi.LOD1	-0.281203
	1508	C	28.517702	0.676653	-27.943198	C	5	YLD124_chi.LOD1	-0.112562
	1509	C	27.698203	1.397938	-28.838472	C	5	YLD124_chi.LOD1	0.131862
	1510	C	28.147160	2.686755	-29.192919	C	5	YLD124_chi.LOD1	-0.140167
	1511	C	29.330037	3.221839	-28.711306	C	5	YLD124_chi.LOD1	-0.26473
	1512	H	30.273438	0.591443	-26.757485	H	5	YLD124_chi.LOD1	0.177954
	1513	H	28.221010	-0.316265	-27.618239	H	5	YLD124_chi.LOD1	0.098859
	1514	H	27.543967	3.285815	-29.871807	H	5	YLD124_chi.LOD1	0.103807
	1515	H	29.606602	4.221346	-29.022907	H	5	YLD124_chi.LOD1	0.161189
	1516	C	24.682944	-0.811135	-29.796828	C	5	YLD124_chi.LOD1	0.100982
	1517	C	24.278100	-2.104826	-29.557748	C	5	YLD124_chi.LOD1	-0.303623
	1518	C	23.861937	0.071695	-30.713160	C	5	YLD124_chi.LOD1	0.096207
	1519	H	24.876356	-2.719441	-28.886765	H	5	YLD124_chi.LOD1	0.124941
	1520	C	22.385480	-0.367162	-30.852452	C	5	YLD124_chi.LOD1	0.409462
	1521	H	23.893039	1.109907	-30.361465	H	5	YLD124_chi.LOD1	-0.020765
	1522	C	22.344740	-1.885246	-31.145508	C	5	YLD124_chi.LOD1	-0.014279
	1523	H	22.773870	-2.062377	-32.143917	H	5	YLD124_chi.LOD1	-0.02177
	1524	C	23.126551	-2.709131	-30.144574	C	5	YLD124_chi.LOD1	0.179445
	1525	C	22.929819	-3.996364	-29.752917	C	5	YLD124_chi.LOD1	-0.27725
	1526	H	23.582228	-4.491697	-29.033987	H	5	YLD124_chi.LOD1	0.132087
	1527	C	21.857022	-4.760326	-30.265507	C	5	YLD124_chi.LOD1	0.141075
	1528	C	21.624677	-6.069710	-29.896622	C	5	YLD124_chi.LOD1	-0.327608
	1529	H	21.199313	-4.298251	-30.992524	H	5	YLD124_chi.LOD1	-0.027316
	1530	C	20.592825	-6.912188	-30.364189	C	5	YLD124_chi.LOD1	0.260653
	1531	C	20.427293	-8.250984	-30.027638	C	5	YLD124_chi.LOD1	-0.287606
	1532	C	19.457407	-6.555270	-31.327417	C	5	YLD124_chi.LOD1	-0.056548
	1533	C	19.291250	-8.781483	-30.732521	C	5	YLD124_chi.LOD1	0.509074
	1534	C	21.285918	-8.946408	-29.138956	C	5	YLD124_chi.LOD1	0.396907
	1535	O	18.755714	-7.815669	-31.517003	O	5	YLD124_chi.LOD1	-0.366332
	1536	C	19.819735	-6.011430	-32.750118	C	5	YLD124_chi.LOD1	0.253806
	1537	C	18.295144	-5.594969	-30.695918	C	5	YLD124_chi.LOD1	0.598114
	1538	C	18.719596	-10.034592	-30.749230	C	5	YLD124_chi.LOD1	-0.43234
	1539	N	22.046164	-9.432592	-28.402626	N	5	YLD124_chi.LOD1	-0.430249
	1540	C	19.223854	-11.114318	-29.968437	C	5	YLD124_chi.LOD1	0.437474
	1541	C	17.580276	-10.287217	-31.569994	C	5	YLD124_chi.LOD1	0.49223
	1542	N	19.603221	-12.023973	-29.347819	N	5	YLD124_chi.LOD1	-0.451871
	1543	N	16.651358	-10.508044	-32.236613	N	5	YLD124_chi.LOD1	-0.482758
	1544	H	22.308597	-6.528299	-29.184515	H	5	YLD124_chi.LOD1	0.157364
	1545	H	21.301815	-2.214826	-31.197080	H	5	YLD124_chi.LOD1	0.040059
	1546	H	24.333634	0.076820	-31.708232	H	5	YLD124_chi.LOD1	-0.024244
	1547	C	32.179862	2.291360	-26.440503	C	5	YLD124_chi.LOD1	0.240322
	1548	C	31.918995	4.229857	-27.824506	C	5	YLD124_chi.LOD1	0.113854
	1549	C	32.941336	4.325993	-28.820348	C	5	YLD124_chi.LOD1	0.29958
	1550	C	31.810509	2.368493	-25.069503	C	5	YLD124_chi.LOD1	0.285774
	1551	O	30.652800	3.041290	-24.917200	O	5	YLD124_chi.LOD1	-0.61175
	1552	O	34.166700	4.663820	-28.373100	O	5	YLD124_chi.LOD1	-0.599726
	1553	C	35.692656	6.356017	-26.664022	C	5	YLD124_chi.LOD1	0.275329
	1554	C	28.022344	2.468723	-23.642963	C	5	YLD124_chi.LOD1	0.358728
	1555	C	27.959250	1.350612	-22.578885	C	5	YLD124_chi.LOD1	-0.337707
	1556	H	28.034193	1.746828	-21.558549	H	5	YLD124_chi.LOD1	0.059176
	1557	H	27.003296	0.811851	-22.647969	H	5	YLD124_chi.LOD1	0.075606
	1558	H	28.757434	0.609639	-22.710109	H	5	YLD124_chi.LOD1	0.056098
	1559	C	34.632734	6.549882	-25.557163	C	5	YLD124_chi.LOD1	-0.311529
	1560	H	35.120159	6.637814	-24.575612	H	5	YLD124_chi.LOD1	0.071087
	1561	H	34.039944	7.461104	-25.705891	H	5	YLD124_chi.LOD1	0.058721
	1562	H	33.937039	5.703656	-25.497234	H	5	YLD124_chi.LOD1	0.056179
	1563	C	27.858679	1.843059	-25.045254	C	5	YLD124_chi.LOD1	-0.279876
	1564	H	27.916839	2.599804	-25.836599	H	5	YLD124_chi.LOD1	0.048405
	1565	H	28.626838	1.087857	-25.249976	H	5	YLD124_chi.LOD1	0.047411
	1566	H	26.881369	1.346498	-25.131821	H	5	YLD124_chi.LOD1	0.054899
	1567	C	26.858310	3.453902	-23.399800	C	5	YLD124_chi.LOD1	-0.273001
	1568	H	25.895030	2.925116	-23.442665	H	5	YLD124_chi.LOD1	0.0526
	1569	H	26.918869	3.935438	-22.415881	H	5	YLD124_chi.LOD1	0.034813
	1570	H	26.825081	4.244101	-24.159554	H	5	YLD124_chi.LOD1	0.061699
	1571	C	36.500156	5.072292	-26.373325	C	5	YLD124_chi.LOD1	-0.202774
	1572	H	35.859077	4.182841	-26.334636	H	5	YLD124_chi.LOD1	0.027959
	1573	H	37.269677	4.899093	-27.133825	H	5	YLD124_chi.LOD1	0.030756
	1574	H	37.004938	5.152181	-25.399710	H	5	YLD124_chi.LOD1	0.045471
	1575	C	36.655165	7.563593	-26.660194	C	5	YLD124_chi.LOD1	-0.266625
	1576	H	36.125995	8.510040	-26.826110	H	5	YLD124_chi.LOD1	0.041283
	1577	H	37.164719	7.641823	-25.688986	H	5	YLD124_chi.LOD1	0.059445
	1578	H	37.425170	7.468347	-27.433779	H	5	YLD124_chi.LOD1	0.054675
	1579	C	36.008753	6.393766	-29.751482	C	5	YLD124_chi.LOD1	-0.410828
	1580	H	36.158400	5.445898	-30.280531	H	5	YLD124_chi.LOD1	0.093855
	1581	H	35.661437	7.131805	-30.484994	H	5	YLD124_chi.LOD1	0.090546
	1582	H	36.988126	6.733554	-29.393330	H	5	YLD124_chi.LOD1	0.070213
	1583	C	33.479861	7.452133	-28.567507	C	5	YLD124_chi.LOD1	-0.460074
	1584	H	33.872669	8.476298	-28.570953	H	5	YLD124_chi.LOD1	0.099819
	1585	H	32.931005	7.304637	-29.504267	H	5	YLD124_chi.LOD1	0.10243
	1586	H	32.757789	7.388927	-27.744510	H	5	YLD124_chi.LOD1	0.086844
	1587	C	30.723831	2.739121	-22.159414	C	5	YLD124_chi.LOD1	-0.477029
	1588	H	31.244345	3.550895	-21.639546	H	5	YLD124_chi.LOD1	0.107463
	1589	H	30.083927	2.235026	-21.425970	H	5	YLD124_chi.LOD1	0.106999
	1590	H	31.478226	2.017612	-22.494573	H	5	YLD124_chi.LOD1	0.090486
	1591	C	29.490842	5.180593	-23.379611	C	5	YLD124_chi.LOD1	-0.470103
	1592	H	29.537665	5.671699	-24.359309	H	5	YLD124_chi.LOD1	0.112461
	1593	H	28.536512	5.454030	-22.914972	H	5	YLD124_chi.LOD1	0.098066
	1594	H	30.288027	5.612803	-22.763053	H	5	YLD124_chi.LOD1	0.083138
	1595	Si	29.722100	3.370300	-23.549400	Si	5	YLD124_chi.LOD1	0.770043
	1596	Si	34.821000	6.218850	-28.366900	Si	5	YLD124_chi.LOD1	0.73989
	1597	H	31.708844	1.355752	-24.653062	H	5	YLD124_chi.LOD1	-0.017464
	1598	H	31.057518	4.817879	-28.153588	H	5	YLD124_chi.LOD1	0.058354
	1599	H	32.978472	3.322218	-29.267230	H	5	YLD124_chi.LOD1	-0.04034
	1600	H	32.631561	5.027925	-29.609110	H	5	YLD124_chi.LOD1	-0.007901
	1601	H	32.351882	4.767791	-26.974592	H	5	YLD124_chi.LOD1	0.028132
	1602	H	32.186718	1.237336	-26.736276	H	5	YLD124_chi.LOD1	-0.011538
	1603	H	33.209039	2.646004	-26.546695	H	5	YLD124_chi.LOD1	0.020652
	1604	H	32.603405	2.877173	-24.503734	H	5	YLD124_chi.LOD1	-0.064856
	1605	C	21.680275	-0.050392	-29.543868	C	5	YLD124_chi.LOD1	-0.299384
	1606	H	21.682402	1.028342	-29.346741	H	5	YLD124_chi.LOD1	0.066854
	1607	H	20.634992	-0.369291	-29.634124	H	5	YLD124_chi.LOD1	0.072315
	1608	H	22.108898	-0.551702	-28.670488	H	5	YLD124_chi.LOD1	0.027971
	1609	C	21.812974	0.391377	-32.007573	C	5	YLD124_chi.LOD1	-0.427943
	1610	H	21.844195	1.474558	-31.838469	H	5	YLD124_chi.LOD1	0.089807
	1611	H	22.328247	0.183954	-32.953419	H	5	YLD124_chi.LOD1	0.091303
	1612	H	20.761326	0.104841	-32.128292	H	5	YLD124_chi.LOD1	0.089757
	1613	C	20.870662	-6.705166	-33.368896	C	5	YLD124_chi.LOD1	-0.158763
	1614	C	19.224291	-4.940341	-33.428583	C	5	YLD124_chi.LOD1	-0.147279
	1615	C	21.321726	-6.334786	-34.632592	C	5	YLD124_chi.LOD1	-0.065518
	1616	H	21.337794	-7.542805	-32.859806	H	5	YLD124_chi.LOD1	0.080042
	1617	C	19.685329	-4.565825	-34.692593	C	5	YLD124_chi.LOD1	-0.090746
	1618	H	18.399435	-4.392626	-32.991909	H	5	YLD124_chi.LOD1	0.09871
	1619	C	20.731468	-5.258809	-35.298687	C	5	YLD124_chi.LOD1	-0.09866
	1620	H	22.134356	-6.887280	-35.095416	H	5	YLD124_chi.LOD1	0.104949
	1621	H	21.082606	-4.966913	-36.284495	H	5	YLD124_chi.LOD1	0.102095
	1622	H	19.212462	-3.732624	-35.204826	H	5	YLD124_chi.LOD1	0.105434
	1623	F	17.064446	-6.111644	-30.831969	F	5	YLD124_chi.LOD1	-0.19867
	1624	F	18.278496	-4.356816	-31.215272	F	5	YLD124_chi.LOD1	-0.154403
	1625	F	18.552066	-5.482316	-29.373408	F	5	YLD124_chi.LOD1	-0.186491
	1626	C	-19.553042	-7.683710	-25.728251	C	6	YLD124_chi.LOD1	-0.150166
	1627	C	-20.301742	-8.552018	-24.990316	C	6	YLD124_chi.LOD1	-0.190723
	1628	H	-21.360065	-8.661794	-25.221877	H	6	YLD124_chi.LOD1	0.123134
	1629	H	-18.500536	-7.568714	-25.474558	H	6	YLD124_chi.LOD1	0.111619
	1630	N	-21.158932	-4.265078	-30.004760	N	6	YLD124_chi.LOD1	-0.506176
	1631	C	-20.771163	-5.123633	-28.989733	C	6	YLD124_chi.LOD1	0.404469
	1632	C	-21.687994	-6.027750	-28.388314	C	6	YLD124_chi.LOD1	-0.281203
	1633	C	-21.310029	-6.851614	-27.344392	C	6	YLD124_chi.LOD1	-0.112562
	1634	C	-19.996274	-6.852086	-26.827291	C	6	YLD124_chi.LOD1	0.131862
	1635	C	-19.083658	-5.972570	-27.445212	C	6	YLD124_chi.LOD1	-0.140167
	1636	C	-19.444448	-5.138353	-28.489901	C	6	YLD124_chi.LOD1	-0.26473
	1637	H	-22.709423	-6.088351	-28.742574	H	6	YLD124_chi.LOD1	0.177954
	1638	H	-22.057661	-7.517159	-26.922957	H	6	YLD124_chi.LOD1	0.098859
	1639	H	-18.056096	-5.944938	-27.088901	H	6	YLD124_chi.LOD1	0.103807
	1640	H	-18.686796	-4.494487	-28.918853	H	6	YLD124_chi.LOD1	0.161189
	1641	C	-19.836209	-9.337403	-23.879780	C	6	YLD124_chi.LOD1	0.100982
	1642	C	-20.730212	-10.121092	-23.186032	C	6	YLD124_chi.LOD1	-0.303623
	1643	C	-18.388210	-9.286713	-23.439513	C	6	YLD124_chi.LOD1	0.096207
	1644	H	-21.764337	-10.152458	-23.525858	H	6	YLD124_chi.LOD1	0.124941
	1645	C	-17.937956	-10.515721	-22.615661	C	6	YLD124_chi.LOD1	0.409462
	1646	H	-17.733362	-9.184498	-24.313166	H	6	YLD124_chi.LOD1	-0.020765
	1647	C	-18.983021	-10.779221	-21.506369	C	6	YLD124_chi.LOD1	-0.014279
	1648	H	-18.950326	-9.946066	-20.787251	H	6	YLD124_chi.LOD1	-0.02177
	1649	C	-20.398276	-10.891603	-22.032019	C	6	YLD124_chi.LOD1	0.179445
	1650	C	-21.449920	-11.586995	-21.522527	C	6	YLD124_chi.LOD1	-0.27725
	1651	H	-22.436967	-11.569820	-21.984365	H	6	YLD124_chi.LOD1	0.132087
	1652	C	-21.309811	-12.374192	-20.357207	C	6	YLD124_chi.LOD1	0.141075
	1653	C	-22.352109	-13.091849	-19.806636	C	6	YLD124_chi.LOD1	-0.327608
	1654	H	-20.342815	-12.399808	-19.868421	H	6	YLD124_chi.LOD1	-0.027316
	1655	C	-22.310721	-13.890001	-18.642873	C	6	YLD124_chi.LOD1	0.260653
	1656	C	-23.396760	-14.544008	-18.072051	C	6	YLD124_chi.LOD1	-0.287606
	1657	C	-21.095855	-14.202027	-17.764743	C	6	YLD124_chi.LOD1	-0.056548
	1658	C	-22.969824	-15.220296	-16.876541	C	6	YLD124_chi.LOD1	0.509074
	1659	C	-24.707441	-14.501862	-18.611444	C	6	YLD124_chi.LOD1	0.396907
	1660	O	-21.650731	-14.988361	-16.673544	O	6	YLD124_chi.LOD1	-0.366332
	1661	C	-20.306895	-13.013003	-17.120792	C	6	YLD124_chi.LOD1	0.253806
	1662	C	-20.011570	-15.229019	-18.429333	C	6	YLD124_chi.LOD1	0.598114
	1663	C	-23.650542	-15.991956	-15.960836	C	6	YLD124_chi.LOD1	-0.43234
	1664	N	-25.747933	-14.404610	-19.125689	N	6	YLD124_chi.LOD1	-0.430249
	1665	C	-25.041009	-16.276187	-16.085482	C	6	YLD124_chi.LOD1	0.437474
	1666	C	-22.961679	-16.538343	-14.837248	C	6	YLD124_chi.LOD1	0.49223
	1667	N	-26.175437	-16.532519	-16.148130	N	6	YLD124_chi.LOD1	-0.451871
	1668	N	-22.412549	-16.988982	-13.914526	N	6	YLD124_chi.LOD1	-0.482758
	1669	H	-23.323745	-13.036250	-20.294468	H	6	YLD124_chi.LOD1	0.157364
	1670	H	-18.698205	-11.677294	-20.948408	H	6	YLD124_chi.LOD1	0.040059
	1671	H	-18.236598	-8.374550	-22.841461	H	6	YLD124_chi.LOD1	-0.024244
	1672	C	-22.464754	-4.287225	-30.561460	C	6	YLD124_chi.LOD1	0.240322
	1673	C	-20.246340	-3.389421	-30.672560	C	6	YLD124_chi.LOD1	0.113854
	1674	C	-19.622667	-3.849505	-31.865744	C	6	YLD124_chi.LOD1	0.29958
	1675	C	-22.838253	-5.342850	-31.444605	C	6	YLD124_chi.LOD1	0.285774
	1676	O	-22.919400	-6.546040	-30.842900	O	6	YLD124_chi.LOD1	-0.61175
	1677	O	-19.669000	-5.193490	-31.950000	O	6	YLD124_chi.LOD1	-0.599726
	1678	C	-19.263415	-7.422192	-33.686513	C	6	YLD124_chi.LOD1	0.275329
	1679	C	-23.786839	-9.297120	-30.119123	C	6	YLD124_chi.LOD1	0.358728
	1680	C	-25.017084	-10.084824	-29.616694	C	6	YLD124_chi.LOD1	-0.337707
	1681	H	-25.807217	-10.144702	-30.375505	H	6	YLD124_chi.LOD1	0.059176
	1682	H	-24.732223	-11.116102	-29.363311	H	6	YLD124_chi.LOD1	0.075606
	1683	H	-25.452615	-9.639298	-28.713822	H	6	YLD124_chi.LOD1	0.056098
	1684	C	-20.686679	-7.783920	-33.207318	C	6	YLD124_chi.LOD1	-0.311529
	1685	H	-21.168665	-8.462020	-33.926085	H	6	YLD124_chi.LOD1	0.071087
	1686	H	-20.679834	-8.294780	-32.236329	H	6	YLD124_chi.LOD1	0.058721
	1687	H	-21.330129	-6.899969	-33.116310	H	6	YLD124_chi.LOD1	0.056179
	1688	C	-22.700839	-9.299913	-29.021281	C	6	YLD124_chi.LOD1	-0.279876
	1689	H	-21.813125	-8.733612	-29.327123	H	6	YLD124_chi.LOD1	0.048405
	1690	H	-23.065115	-8.866062	-28.082459	H	6	YLD124_chi.LOD1	0.047411
	1691	H	-22.379451	-10.328540	-28.802558	H	6	YLD124_chi.LOD1	0.054899
	1692	C	-23.225222	-9.998599	-31.374987	C	6	YLD124_chi.LOD1	-0.273001
	1693	H	-22.956967	-11.039614	-31.143283	H	6	YLD124_chi.LOD1	0.0526
	1694	H	-23.952282	-10.027557	-32.196075	H	6	YLD124_chi.LOD1	0.034813
	1695	H	-22.317481	-9.508052	-31.746625	H	6	YLD124_chi.LOD1	0.061699
	1696	C	-19.352783	-6.732193	-35.065072	C	6	YLD124_chi.LOD1	-0.202774
	1697	H	-19.959306	-5.818703	-35.029437	H	6	YLD124_chi.LOD1	0.027959
	1698	H	-18.361468	-6.462743	-35.446140	H	6	YLD124_chi.LOD1	0.030756
	1699	H	-19.820711	-7.405086	-35.798128	H	6	YLD124_chi.LOD1	0.045471
	1700	C	-18.432877	-8.716337	-33.828201	C	6	YLD124_chi.LOD1	-0.266625
	1701	H	-18.368181	-9.267493	-32.881971	H	6	YLD124_chi.LOD1	0.041283
	1702	H	-18.896628	-9.388153	-34.564821	H	6	YLD124_chi.LOD1	0.059445
	1703	H	-17.411977	-8.505743	-34.165579	H	6	YLD124_chi.LOD1	0.054675
	1704	C	-17.060082	-5.301528	-33.158950	C	6	YLD124_chi.LOD1	-0.410828
	1705	H	-16.185471	-5.934516	-33.346358	H	6	YLD124_chi.LOD1	0.093855
	1706	H	-17.356161	-4.853239	-34.115372	H	6	YLD124_chi.LOD1	0.090546
	1707	H	-16.743055	-4.480708	-32.504237	H	6	YLD124_chi.LOD1	0.070213
	1708	C	-17.820815	-7.149763	-30.938532	C	6	YLD124_chi.LOD1	-0.460074
	1709	H	-18.277754	-8.143307	-30.853082	H	6	YLD124_chi.LOD1	0.099819
	1710	H	-16.734293	-7.286699	-30.973687	H	6	YLD124_chi.LOD1	0.10243
	1711	H	-18.058825	-6.607431	-30.015529	H	6	YLD124_chi.LOD1	0.086844
	1712	C	-25.042523	-6.664531	-29.059288	C	6	YLD124_chi.LOD1	-0.477029
	1713	H	-26.009266	-7.114118	-28.807388	H	6	YLD124_chi.LOD1	0.107463
	1714	H	-24.393218	-6.766251	-28.182027	H	6	YLD124_chi.LOD1	0.106999
	1715	H	-25.205164	-5.593926	-29.230668	H	6	YLD124_chi.LOD1	0.090486
	1716	C	-25.434492	-7.415836	-31.934677	C	6	YLD124_chi.LOD1	-0.470103
	1717	H	-26.121053	-6.565214	-31.843792	H	6	YLD124_chi.LOD1	0.112461
	1718	H	-24.922910	-7.329571	-32.900205	H	6	YLD124_chi.LOD1	0.098066
	1719	H	-26.048155	-8.323839	-31.972116	H	6	YLD124_chi.LOD1	0.083138
	1720	Si	-24.285200	-7.477490	-30.508200	Si	6	YLD124_chi.LOD1	0.770043
	1721	Si	-18.438100	-6.250780	-32.411800	Si	6	YLD124_chi.LOD1	0.73989
	1722	H	-23.786373	-5.118210	-31.954517	H	6	YLD124_chi.LOD1	-0.017464
	1723	H	-20.769054	-2.451264	-30.879536	H	6	YLD124_chi.LOD1	0.058354
	1724	H	-20.145194	-3.410264	-32.727532	H	6	YLD124_chi.LOD1	-0.04034
	1725	H	-18.575370	-3.514562	-31.908119	H	6	YLD124_chi.LOD1	-0.007901
	1726	H	-19.449742	-3.147133	-29.961331	H	6	YLD124_chi.LOD1	0.028132
	1727	H	-23.173018	-4.364903	-29.730302	H	6	YLD124_chi.LOD1	-0.011538
	1728	H	-22.653647	-3.319812	-31.035471	H	6	YLD124_chi.LOD1	0.020652
	1729	H	-22.052591	-5.372772	-32.212311	H	6	YLD124_chi.LOD1	-0.064856
	1730	C	-17.843898	-11.701249	-23.561958	C	6	YLD124_chi.LOD1	-0.299384
	1731	H	-17.083615	-11.529732	-24.333373	H	6	YLD124_chi.LOD1	0.066854
	1732	H	-17.534716	-12.577888	-22.980262	H	6	YLD124_chi.LOD1	0.072315
	1733	H	-18.783316	-11.948482	-24.066131	H	6	YLD124_chi.LOD1	0.027971
	1734	C	-16.618599	-10.168823	-22.002173	C	6	YLD124_chi.LOD1	-0.427943
	1735	H	-15.858602	-9.957763	-22.764216	H	6	YLD124_chi.LOD1	0.089807
	1736	H	-16.672669	-9.301880	-21.332368	H	6	YLD124_chi.LOD1	0.091303
	1737	H	-16.269391	-11.026121	-21.414182	H	6	YLD124_chi.LOD1	0.089757
	1738	C	-21.131823	-12.012004	-16.585913	C	6	YLD124_chi.LOD1	-0.158763
	1739	C	-18.917003	-12.859075	-17.039509	C	6	YLD124_chi.LOD1	-0.147279
	1740	C	-20.582983	-10.880293	-15.989613	C	6	YLD124_chi.LOD1	-0.065518
	1741	H	-22.211234	-12.119743	-16.633743	H	6	YLD124_chi.LOD1	0.080042
	1742	C	-18.369813	-11.718094	-16.448505	C	6	YLD124_chi.LOD1	-0.090746
	1743	H	-18.248169	-13.617817	-17.424262	H	6	YLD124_chi.LOD1	0.09871
	1744	C	-19.196651	-10.727525	-15.922106	C	6	YLD124_chi.LOD1	-0.09866
	1745	H	-21.239352	-10.118699	-15.578542	H	6	YLD124_chi.LOD1	0.104949
	1746	H	-18.765834	-9.844519	-15.458410	H	6	YLD124_chi.LOD1	0.102095
	1747	H	-17.289772	-11.614440	-16.393937	H	6	YLD124_chi.LOD1	0.105434
	1748	F	-19.622875	-14.729007	-19.612120	F	6	YLD124_chi.LOD1	-0.19867
	1749	F	-20.617489	-16.404578	-18.661611	F	6	YLD124_chi.LOD1	-0.154403
	1750	F	-18.900377	-15.476576	-17.700156	F	6	YLD124_chi.LOD1	-0.186491
	1751	C	-17.268475	-13.846670	-10.497134	C	1	YLD124.LOD1	-0.158041
	1752	C	-17.018418	-12.995923	-11.532881	C	1	YLD124.LOD1	-0.174247
	1753	H	-16.384737	-13.336761	-12.350179	H	1	YLD124.LOD1	0.11023
	1754	H	-17.891585	-13.491530	-9.678005	H	1	YLD124.LOD1	0.116594
	1755	N	-15.469713	-19.207003	-9.723617	N	1	YLD124.LOD1	-0.477879
	1756	C	-15.914321	-17.911616	-9.928171	C	1	YLD124.LOD1	0.383639
	1757	C	-15.553888	-17.175864	-11.089480	C	1	YLD124.LOD1	-0.278193
	1758	C	-15.975476	-15.872934	-11.278639	C	1	YLD124.LOD1	-0.102205
	1759	C	-16.791377	-15.204580	-10.340043	C	1	YLD124.LOD1	0.126725
	1760	C	-17.154553	-15.942069	-9.194378	C	1	YLD124.LOD1	-0.148338
	1761	C	-16.741848	-17.247703	-8.987608	C	1	YLD124.LOD1	-0.248652
	1762	H	-14.936858	-17.628856	-11.855349	H	1	YLD124.LOD1	0.176041
	1763	H	-15.664002	-15.362609	-12.185274	H	1	YLD124.LOD1	0.098595
	1764	H	-17.787037	-15.471803	-8.444432	H	1	YLD124.LOD1	0.105176
	1765	H	-17.070177	-17.754360	-8.088658	H	1	YLD124.LOD1	0.157607
	1766	C	-17.502996	-11.648665	-11.661479	C	1	YLD124.LOD1	0.13089
	1767	C	-17.129063	-10.900315	-12.754686	C	1	YLD124.LOD1	-0.298955
	1768	C	-18.398376	-11.033559	-10.606330	C	1	YLD124.LOD1	0.000678
	1769	H	-16.493529	-11.364573	-13.507319	H	1	YLD124.LOD1	0.128536
	1770	C	-19.250918	-9.848992	-11.118720	C	1	YLD124.LOD1	0.312314
	1771	H	-19.065002	-11.796275	-10.186636	H	1	YLD124.LOD1	0.009572
	1772	C	-18.331399	-8.872987	-11.889491	C	1	YLD124.LOD1	0.132423
	1773	H	-17.629007	-8.414649	-11.176050	H	1	YLD124.LOD1	-0.011706
	1774	C	-17.522151	-9.546950	-12.976945	C	1	YLD124.LOD1	0.094029
	1775	C	-17.062206	-9.031775	-14.149397	C	1	YLD124.LOD1	-0.194272
	1776	H	-16.458530	-9.616354	-14.843446	H	1	YLD124.LOD1	0.118653
	1777	C	-17.354894	-7.702367	-14.528769	C	1	YLD124.LOD1	0.029031
	1778	C	-16.937446	-7.151747	-15.723345	C	1	YLD124.LOD1	-0.298661
	1779	H	-17.943327	-7.094343	-13.851633	H	1	YLD124.LOD1	0.063317
	1780	C	-17.217442	-5.852564	-16.199516	C	1	YLD124.LOD1	0.24754
	1781	C	-16.861309	-5.353040	-17.447273	C	1	YLD124.LOD1	-0.281071
	1782	C	-17.974391	-4.734765	-15.476721	C	1	YLD124.LOD1	-0.098074
	1783	C	-17.373010	-4.016144	-17.587445	C	1	YLD124.LOD1	0.526995
	1784	C	-16.130923	-6.096524	-18.408649	C	1	YLD124.LOD1	0.389724
	1785	O	-18.062048	-3.677424	-16.470685	O	1	YLD124.LOD1	-0.351072
	1786	C	-17.149947	-4.019636	-14.268668	C	1	YLD124.LOD1	0.617997
	1787	C	-19.427592	-5.017014	-14.973061	C	1	YLD124.LOD1	0.253109
	1788	C	-17.298340	-3.103251	-18.616092	C	1	YLD124.LOD1	-0.451385
	1789	N	-15.533750	-6.785121	-19.133741	N	1	YLD124.LOD1	-0.428829
	1790	F	-15.931317	-3.725600	-14.746435	F	1	YLD124.LOD1	-0.200469
	1791	F	-17.687160	-2.887167	-13.787881	F	1	YLD124.LOD1	-0.158364
	1792	F	-16.991626	-4.872815	-13.232280	F	1	YLD124.LOD1	-0.193377
	1793	C	-19.747619	-6.382890	-14.967928	C	1	YLD124.LOD1	-0.158716
	1794	C	-20.415846	-4.088507	-14.622466	C	1	YLD124.LOD1	-0.162688
	1795	C	-16.608716	-3.378165	-19.832074	C	1	YLD124.LOD1	0.447489
	1796	C	-17.925819	-1.828646	-18.484870	C	1	YLD124.LOD1	0.491336
	1797	H	-18.994327	-7.114283	-15.245112	H	1	YLD124.LOD1	0.085247
	1798	C	-21.022735	-6.813908	-14.613585	C	1	YLD124.LOD1	-0.074329
	1799	C	-21.691928	-4.525186	-14.258155	C	1	YLD124.LOD1	-0.055824
	1800	H	-20.212228	-3.025662	-14.632803	H	1	YLD124.LOD1	0.099228
	1801	N	-16.056882	-3.561283	-20.841278	N	1	YLD124.LOD1	-0.454587
	1802	N	-18.435259	-0.785606	-18.392329	N	1	YLD124.LOD1	-0.481156
	1803	H	-21.251273	-7.875748	-14.619322	H	1	YLD124.LOD1	0.111202
	1804	C	-22.000299	-5.884263	-14.252210	C	1	YLD124.LOD1	-0.106678
	1805	H	-22.447589	-3.792050	-13.990220	H	1	YLD124.LOD1	0.095951
	1806	H	-22.995980	-6.218247	-13.973970	H	1	YLD124.LOD1	0.103827
	1807	H	-16.355618	-7.776746	-16.398631	H	1	YLD124.LOD1	0.159396
	1808	H	-18.934497	-8.054217	-12.295255	H	1	YLD124.LOD1	-0.052081
	1809	H	-17.769057	-10.690399	-9.770461	H	1	YLD124.LOD1	-0.003289
	1810	C	-14.722026	-19.931323	-10.687824	C	1	YLD124.LOD1	0.198954
	1811	C	-15.858339	-19.993114	-8.596043	C	1	YLD124.LOD1	0.115128
	1812	C	-16.985797	-20.859283	-8.707740	C	1	YLD124.LOD1	0.306486
	1813	C	-15.343361	-20.876020	-11.562985	C	1	YLD124.LOD1	0.28632
	1814	O	-15.393600	-22.136700	-11.091000	O	1	YLD124.LOD1	-0.606883
	1815	O	-18.032100	-20.253700	-9.302360	O	1	YLD124.LOD1	-0.600198
	1816	C	-20.402612	-21.161842	-8.045811	C	1	YLD124.LOD1	0.267162
	1817	C	-14.693581	-23.898845	-13.384801	C	1	YLD124.LOD1	0.369124
	1818	C	-13.794347	-25.092843	-13.775980	C	1	YLD124.LOD1	-0.324271
	1819	H	-14.046166	-26.001813	-13.215480	H	1	YLD124.LOD1	0.053925
	1820	H	-13.915798	-25.326573	-14.843466	H	1	YLD124.LOD1	0.070181
	1821	H	-12.731029	-24.881070	-13.610654	H	1	YLD124.LOD1	0.052098
	1822	C	-21.685776	-20.726262	-7.304056	C	1	YLD124.LOD1	-0.316887
	1823	H	-22.279767	-21.608016	-7.024119	H	1	YLD124.LOD1	0.07213
	1824	H	-21.463987	-20.178863	-6.379437	H	1	YLD124.LOD1	0.059956
	1825	H	-22.326772	-20.088667	-7.925550	H	1	YLD124.LOD1	0.057948
	1826	C	-14.303261	-22.672385	-14.237749	C	1	YLD124.LOD1	-0.260833
	1827	H	-14.910122	-21.794123	-13.987862	H	1	YLD124.LOD1	0.041714
	1828	H	-13.250460	-22.397941	-14.101634	H	1	YLD124.LOD1	0.041636
	1829	H	-14.449751	-22.885063	-15.306666	H	1	YLD124.LOD1	0.048242
	1830	C	-16.163457	-24.266233	-13.682811	C	1	YLD124.LOD1	-0.256632
	1831	H	-16.285795	-24.521656	-14.745441	H	1	YLD124.LOD1	0.046696
	1832	H	-16.501548	-25.132631	-13.101102	H	1	YLD124.LOD1	0.030906
	1833	H	-16.844896	-23.433136	-13.472155	H	1	YLD124.LOD1	0.051975
	1834	C	-20.794776	-21.948841	-9.315290	C	1	YLD124.LOD1	-0.203727
	1835	H	-21.417829	-21.350646	-9.991611	H	1	YLD124.LOD1	0.027457
	1836	H	-19.912537	-22.278605	-9.875070	H	1	YLD124.LOD1	0.031775
	1837	H	-21.373741	-22.843722	-9.045266	H	1	YLD124.LOD1	0.046776
	1838	C	-19.572144	-22.080334	-7.123039	C	1	YLD124.LOD1	-0.249027
	1839	H	-19.296622	-21.579085	-6.186911	H	1	YLD124.LOD1	0.037596
	1840	H	-20.151495	-22.975436	-6.854411	H	1	YLD124.LOD1	0.055765
	1841	H	-18.648986	-22.413876	-7.609808	H	1	YLD124.LOD1	0.04836
	1842	C	-18.847298	-18.647584	-7.056381	C	1	YLD124.LOD1	-0.409962
	1843	H	-18.293451	-19.269006	-6.343745	H	1	YLD124.LOD1	0.090944
	1844	H	-18.199063	-17.809716	-7.340978	H	1	YLD124.LOD1	0.090896
	1845	H	-19.708869	-18.221810	-6.527746	H	1	YLD124.LOD1	0.069902
	1846	C	-20.287745	-18.500639	-9.666079	C	1	YLD124.LOD1	-0.458602
	1847	H	-19.668755	-17.648287	-9.971955	H	1	YLD124.LOD1	0.097974
	1848	H	-20.602361	-19.026043	-10.574731	H	1	YLD124.LOD1	0.103309
	1849	H	-21.186783	-18.090783	-9.189845	H	1	YLD124.LOD1	0.085827
	1850	C	-12.739088	-22.920711	-11.179112	C	1	YLD124.LOD1	-0.493974
	1851	H	-12.496994	-21.996484	-11.715209	H	1	YLD124.LOD1	0.11158
	1852	H	-12.613674	-22.723182	-10.108276	H	1	YLD124.LOD1	0.113577
	1853	H	-12.001494	-23.678951	-11.466555	H	1	YLD124.LOD1	0.09477
	1854	C	-14.878203	-24.899098	-10.466369	C	1	YLD124.LOD1	-0.483575
	1855	H	-14.756995	-24.646256	-9.405981	H	1	YLD124.LOD1	0.116965
	1856	H	-15.907846	-25.245785	-10.610023	H	1	YLD124.LOD1	0.100121
	1857	H	-14.216477	-25.748322	-10.674692	H	1	YLD124.LOD1	0.088084
	1858	Si	-14.446700	-23.463900	-11.523500	Si	1	YLD124.LOD1	0.763339
	1859	Si	-19.382200	-19.609400	-8.521730	Si	1	YLD124.LOD1	0.748472
	1860	H	-16.364760	-20.490924	-11.698135	H	1	YLD124.LOD1	-0.009815
	1861	H	-14.985019	-20.561744	-8.264151	H	1	YLD124.LOD1	0.057511
	1862	H	-16.664815	-21.720714	-9.310909	H	1	YLD124.LOD1	-0.045737
	1863	H	-17.295318	-21.241958	-7.723575	H	1	YLD124.LOD1	-0.011652
	1864	H	-16.100467	-19.299038	-7.784400	H	1	YLD124.LOD1	0.023801
	1865	H	-14.164667	-19.198455	-11.280790	H	1	YLD124.LOD1	-0.001966
	1866	H	-13.975007	-20.529695	-10.159092	H	1	YLD124.LOD1	0.031172
	1867	H	-14.857679	-20.870122	-12.548596	H	1	YLD124.LOD1	-0.066029
	1868	C	-20.330571	-10.411511	-12.036660	C	1	YLD124.LOD1	-0.185058
	1869	H	-21.003075	-11.081282	-11.487359	H	1	YLD124.LOD1	0.04722
	1870	H	-20.929534	-9.573618	-12.413033	H	1	YLD124.LOD1	0.027573
	1871	H	-19.942502	-10.960081	-12.900516	H	1	YLD124.LOD1	0.00699
	1872	C	-19.824395	-9.170119	-9.918363	C	1	YLD124.LOD1	-0.347891
	1873	H	-20.467773	-9.842682	-9.338107	H	1	YLD124.LOD1	0.075067
	1874	H	-19.054341	-8.776762	-9.243503	H	1	YLD124.LOD1	0.071859
	1875	H	-20.441143	-8.326898	-10.252021	H	1	YLD124.LOD1	0.077505
	1876	C	-21.217353	1.448605	-23.449222	C	1	YLD124_chi.LOD1	-0.150166
	1877	C	-21.841689	1.775840	-24.616347	C	1	YLD124_chi.LOD1	-0.190723
	1878	H	-22.029191	2.825787	-24.835832	H	1	YLD124_chi.LOD1	0.123134
	1879	H	-21.052770	0.394424	-23.232507	H	1	YLD124_chi.LOD1	0.111619
	1880	N	-19.411423	4.854798	-19.243164	N	1	YLD124_chi.LOD1	-0.506176
	1881	C	-19.821088	4.038995	-20.284510	C	1	YLD124_chi.LOD1	0.404469
	1882	C	-20.384174	4.575857	-21.473806	C	1	YLD124_chi.LOD1	-0.281203
	1883	C	-20.834302	3.757338	-22.493018	C	1	YLD124_chi.LOD1	-0.112562
	1884	C	-20.749150	2.350065	-22.417671	C	1	YLD124_chi.LOD1	0.131862
	1885	C	-20.165212	1.823445	-21.247230	C	1	YLD124_chi.LOD1	-0.140167
	1886	C	-19.711169	2.627146	-20.215062	C	1	YLD124_chi.LOD1	-0.26473
	1887	H	-20.469823	5.647413	-21.603886	H	1	YLD124_chi.LOD1	0.177954
	1888	H	-21.259741	4.227249	-23.374889	H	1	YLD124_chi.LOD1	0.098859
	1889	H	-20.067436	0.744502	-21.147599	H	1	YLD124_chi.LOD1	0.103807
	1890	H	-19.267839	2.150846	-19.349501	H	1	YLD124_chi.LOD1	0.161189
	1891	C	-22.326777	0.850678	-25.604075	C	1	YLD124_chi.LOD1	0.100982
	1892	C	-23.000871	1.330404	-26.704146	C	1	YLD124_chi.LOD1	-0.303623
	1893	C	-22.140569	-0.642487	-25.434108	C	1	YLD124_chi.LOD1	0.096207
	1894	H	-23.113968	2.407974	-26.813378	H	1	YLD124_chi.LOD1	0.124941
	1895	C	-22.234649	-1.442342	-26.754451	C	1	YLD124_chi.LOD1	0.409462
	1896	H	-21.173018	-0.848888	-24.961050	H	1	YLD124_chi.LOD1	-0.020765
	1897	C	-23.502036	-0.991992	-27.518020	C	1	YLD124_chi.LOD1	-0.014279
	1898	H	-24.388208	-1.309514	-26.946858	H	1	YLD124_chi.LOD1	-0.02177
	1899	C	-23.581315	0.507012	-27.714455	C	1	YLD124_chi.LOD1	0.179445
	1900	C	-24.192310	1.211391	-28.704101	C	1	YLD124_chi.LOD1	-0.27725
	1901	H	-24.199855	2.301088	-28.722941	H	1	YLD124_chi.LOD1	0.132087
	1902	C	-24.853085	0.555229	-29.767167	C	1	YLD124_chi.LOD1	0.141075
	1903	C	-25.487646	1.232638	-30.788439	C	1	YLD124_chi.LOD1	-0.327608
	1904	H	-24.873494	-0.528390	-29.767850	H	1	YLD124_chi.LOD1	-0.027316
	1905	C	-26.182681	0.665678	-31.878662	C	1	YLD124_chi.LOD1	0.260653
	1906	C	-26.873935	1.375527	-32.854022	C	1	YLD124_chi.LOD1	-0.287606
	1907	C	-26.335555	-0.818816	-32.221124	C	1	YLD124_chi.LOD1	-0.056548
	1908	C	-27.484360	0.451373	-33.771739	C	1	YLD124_chi.LOD1	0.509074
	1909	C	-26.953374	2.790961	-32.883069	C	1	YLD124_chi.LOD1	0.396907
	1910	O	-27.210912	-0.817231	-33.383308	O	1	YLD124_chi.LOD1	-0.366332
	1911	C	-26.979547	-1.773791	-31.160921	C	1	YLD124_chi.LOD1	0.253806
	1912	C	-24.983472	-1.534231	-32.796986	C	1	YLD124_chi.LOD1	0.598114
	1913	C	-28.265996	0.642969	-34.889633	C	1	YLD124_chi.LOD1	-0.43234
	1914	N	-26.965486	3.953917	-32.820501	N	1	YLD124_chi.LOD1	-0.430249
	1915	C	-28.616316	1.940190	-35.363149	C	1	YLD124_chi.LOD1	0.437474
	1916	C	-28.755885	-0.481800	-35.617935	C	1	YLD124_chi.LOD1	0.49223
	1917	N	-28.926814	2.980838	-35.784101	N	1	YLD124_chi.LOD1	-0.451871
	1918	N	-29.164142	-1.390623	-36.220763	N	1	YLD124_chi.LOD1	-0.482758
	1919	H	-25.480286	2.320905	-30.760745	H	1	YLD124_chi.LOD1	0.157364
	1920	H	-23.551010	-1.517534	-28.477385	H	1	YLD124_chi.LOD1	0.040059
	1921	H	-22.903893	-1.012048	-24.731645	H	1	YLD124_chi.LOD1	-0.024244
	1922	C	-19.440446	6.273854	-19.301952	C	1	YLD124_chi.LOD1	0.240322
	1923	C	-18.788225	4.324328	-18.071019	C	1	YLD124_chi.LOD1	0.113854
	1924	C	-17.424791	3.931779	-18.171423	C	1	YLD124_chi.LOD1	0.29958
	1925	C	-18.253823	7.013618	-19.584378	C	1	YLD124_chi.LOD1	0.285774
	1926	O	-17.371400	7.037790	-18.566100	O	1	YLD124_chi.LOD1	-0.61175
	1927	O	-16.963800	4.117280	-19.423900	O	1	YLD124_chi.LOD1	-0.599726
	1928	C	-15.607545	4.156518	-21.939751	C	1	YLD124_chi.LOD1	0.275329
	1929	C	-15.517233	7.820918	-16.377145	C	1	YLD124_chi.LOD1	0.358728
	1930	C	-15.060962	9.044985	-15.552588	C	1	YLD124_chi.LOD1	-0.337707
	1931	H	-15.857683	9.423781	-14.900331	H	1	YLD124_chi.LOD1	0.059176
	1932	H	-14.213677	8.774951	-14.906002	H	1	YLD124_chi.LOD1	0.075606
	1933	H	-14.728608	9.872796	-16.191045	H	1	YLD124_chi.LOD1	0.056098
	1934	C	-16.951222	4.876458	-22.189497	C	1	YLD124_chi.LOD1	-0.311529
	1935	H	-17.033846	5.171065	-23.245497	H	1	YLD124_chi.LOD1	0.071087
	1936	H	-17.812951	4.235501	-21.964906	H	1	YLD124_chi.LOD1	0.058721
	1937	H	-17.048661	5.790734	-21.590928	H	1	YLD124_chi.LOD1	0.056179
	1938	C	-14.332709	7.313549	-17.228109	C	1	YLD124_chi.LOD1	-0.279876
	1939	H	-14.616459	6.454176	-17.847170	H	1	YLD124_chi.LOD1	0.048405
	1940	H	-13.944569	8.091352	-17.896451	H	1	YLD124_chi.LOD1	0.047411
	1941	H	-13.503070	6.996311	-16.579833	H	1	YLD124_chi.LOD1	0.054899
	1942	C	-15.948007	6.699407	-15.406925	C	1	YLD124_chi.LOD1	-0.273001
	1943	H	-15.117311	6.433891	-14.736994	H	1	YLD124_chi.LOD1	0.0526
	1944	H	-16.791504	6.998784	-14.772474	H	1	YLD124_chi.LOD1	0.034813
	1945	H	-16.235801	5.785081	-15.939771	H	1	YLD124_chi.LOD1	0.061699
	1946	C	-14.447213	5.109313	-22.300755	C	1	YLD124_chi.LOD1	-0.202774
	1947	H	-14.472485	6.031764	-21.707419	H	1	YLD124_chi.LOD1	0.027959
	1948	H	-13.472140	4.635027	-22.143252	H	1	YLD124_chi.LOD1	0.030756
	1949	H	-14.509420	5.401312	-23.359046	H	1	YLD124_chi.LOD1	0.045471
	1950	C	-15.527464	2.906627	-22.843099	C	1	YLD124_chi.LOD1	-0.266625
	1951	H	-16.353298	2.210041	-22.653158	H	1	YLD124_chi.LOD1	0.041283
	1952	H	-15.584257	3.197348	-23.901997	H	1	YLD124_chi.LOD1	0.059445
	1953	H	-14.587775	2.362560	-22.696848	H	1	YLD124_chi.LOD1	0.054675
	1954	C	-14.116930	4.493216	-19.235219	C	1	YLD124_chi.LOD1	-0.410828
	1955	H	-13.511627	3.795311	-18.645917	H	1	YLD124_chi.LOD1	0.093855
	1956	H	-13.448359	4.992724	-19.947169	H	1	YLD124_chi.LOD1	0.090546
	1957	H	-14.493980	5.265014	-18.553265	H	1	YLD124_chi.LOD1	0.070213
	1958	C	-15.288662	1.828584	-19.908169	C	1	YLD124_chi.LOD1	-0.460074
	1959	H	-14.580879	1.424954	-20.642574	H	1	YLD124_chi.LOD1	0.099819
	1960	H	-14.918723	1.563976	-18.911352	H	1	YLD124_chi.LOD1	0.10243
	1961	H	-16.240665	1.305795	-20.060120	H	1	YLD124_chi.LOD1	0.086844
	1962	C	-16.481471	9.664227	-18.680530	C	1	YLD124_chi.LOD1	-0.477029
	1963	H	-16.430723	10.627421	-18.161052	H	1	YLD124_chi.LOD1	0.107463
	1964	H	-15.490795	9.466752	-19.106081	H	1	YLD124_chi.LOD1	0.106999
	1965	H	-17.186601	9.769298	-19.513458	H	1	YLD124_chi.LOD1	0.090486
	1966	C	-18.434652	8.817902	-16.570229	C	1	YLD124_chi.LOD1	-0.470103
	1967	H	-19.344835	8.755503	-17.179211	H	1	YLD124_chi.LOD1	0.112461
	1968	H	-18.589813	8.204610	-15.675130	H	1	YLD124_chi.LOD1	0.098066
	1969	H	-18.338611	9.858622	-16.238368	H	1	YLD124_chi.LOD1	0.083138
	1970	Si	-16.965600	8.318180	-17.545800	Si	1	YLD124_chi.LOD1	0.770043
	1971	Si	-15.491700	3.640520	-20.096200	Si	1	YLD124_chi.LOD1	0.73989
	1972	H	-17.805631	6.507929	-20.452023	H	1	YLD124_chi.LOD1	-0.017464
	1973	H	-18.872519	5.068424	-17.273885	H	1	YLD124_chi.LOD1	0.058354
	1974	H	-16.814718	4.514516	-17.466531	H	1	YLD124_chi.LOD1	-0.04034
	1975	H	-17.325194	2.870977	-17.896480	H	1	YLD124_chi.LOD1	-0.007901
	1976	H	-19.375427	3.458705	-17.746967	H	1	YLD124_chi.LOD1	0.028132
	1977	H	-20.231091	6.548397	-20.007644	H	1	YLD124_chi.LOD1	-0.011538
	1978	H	-19.758429	6.648399	-18.324784	H	1	YLD124_chi.LOD1	0.020652
	1979	H	-18.485157	8.043729	-19.889153	H	1	YLD124_chi.LOD1	-0.064856
	1980	C	-20.982883	-1.150525	-27.565584	C	1	YLD124_chi.LOD1	-0.299384
	1981	H	-20.084091	-1.494228	-27.039684	H	1	YLD124_chi.LOD1	0.066854
	1982	H	-21.049713	-1.707682	-28.507692	H	1	YLD124_chi.LOD1	0.072315
	1983	H	-20.843877	-0.093101	-27.811255	H	1	YLD124_chi.LOD1	0.027971
	1984	C	-22.349383	-2.886307	-26.381375	C	1	YLD124_chi.LOD1	-0.427943
	1985	H	-21.472362	-3.232662	-25.821263	H	1	YLD124_chi.LOD1	0.089807
	1986	H	-23.240004	-3.103298	-25.778994	H	1	YLD124_chi.LOD1	0.091303
	1987	H	-22.412293	-3.481655	-27.300202	H	1	YLD124_chi.LOD1	0.089757
	1988	C	-28.109533	-1.234370	-30.527867	C	1	YLD124_chi.LOD1	-0.158763
	1989	C	-26.547494	-3.055491	-30.796673	C	1	YLD124_chi.LOD1	-0.147279
	1990	C	-28.788991	-1.954185	-29.549209	C	1	YLD124_chi.LOD1	-0.065518
	1991	H	-28.462148	-0.245285	-30.804268	H	1	YLD124_chi.LOD1	0.080042
	1992	C	-27.226325	-3.771245	-29.808026	C	1	YLD124_chi.LOD1	-0.090746
	1993	H	-25.691166	-3.512552	-31.275067	H	1	YLD124_chi.LOD1	0.09871
	1994	C	-28.346259	-3.226725	-29.182543	C	1	YLD124_chi.LOD1	-0.09866
	1995	H	-29.663680	-1.519704	-29.073847	H	1	YLD124_chi.LOD1	0.104949
	1996	H	-28.874041	-3.790006	-28.418030	H	1	YLD124_chi.LOD1	0.102095
	1997	H	-26.877764	-4.763947	-29.537364	H	1	YLD124_chi.LOD1	0.105434
	1998	F	-24.958388	-1.462225	-34.136489	F	1	YLD124_chi.LOD1	-0.19867
	1999	F	-24.818901	-2.821873	-32.453585	F	1	YLD124_chi.LOD1	-0.154403
	2000	F	-23.920381	-0.844379	-32.326164	F	1	YLD124_chi.LOD1	-0.186491
	2001	C	-20.181133	-18.160873	32.461044	C	1	YLD124.LOD1	-0.158041
	2002	C	-19.346369	-18.621489	33.435761	C	1	YLD124.LOD1	-0.174247
	2003	H	-18.733839	-19.498058	33.230495	H	1	YLD124.LOD1	0.11023
	2004	H	-20.799824	-17.292424	32.680999	H	1	YLD124.LOD1	0.116594
	2005	N	-21.004473	-20.163158	27.180891	N	1	YLD124.LOD1	-0.477879
	2006	C	-20.785768	-19.675056	28.458182	C	1	YLD124.LOD1	0.383639
	2007	C	-19.855519	-20.288803	29.340130	C	1	YLD124.LOD1	-0.278193
	2008	C	-19.659050	-19.817309	30.624746	C	1	YLD124.LOD1	-0.102205
	2009	C	-20.359321	-18.699933	31.129172	C	1	YLD124.LOD1	0.126725
	2010	C	-21.273744	-18.088363	30.247044	C	1	YLD124.LOD1	-0.148338
	2011	C	-21.484003	-18.546481	28.957209	C	1	YLD124.LOD1	-0.248652
	2012	H	-19.277204	-21.145266	29.016856	H	1	YLD124.LOD1	0.176041
	2013	H	-18.936472	-20.331282	31.251760	H	1	YLD124.LOD1	0.098595
	2014	H	-21.833730	-17.220231	30.588169	H	1	YLD124.LOD1	0.105176
	2015	H	-22.194488	-18.018398	28.333548	H	1	YLD124.LOD1	0.157607
	2016	C	-19.192048	-18.067948	34.753423	C	1	YLD124.LOD1	0.13089
	2017	C	-18.331601	-18.673212	35.641252	C	1	YLD124.LOD1	-0.298955
	2018	C	-19.974303	-16.845812	35.186852	C	1	YLD124.LOD1	0.000678
	2019	H	-17.770500	-19.544452	35.306587	H	1	YLD124.LOD1	0.128536
	2020	C	-19.330284	-16.071536	36.360865	C	1	YLD124.LOD1	0.312314
	2021	H	-20.105534	-16.162427	34.339484	H	1	YLD124.LOD1	0.009572
	2022	C	-18.960700	-17.078161	37.475449	C	1	YLD124.LOD1	0.132423
	2023	H	-19.889855	-17.490811	37.898316	H	1	YLD124.LOD1	-0.011706
	2024	C	-18.116653	-18.233674	36.981446	C	1	YLD124.LOD1	0.094029
	2025	C	-17.187241	-18.966706	37.652533	C	1	YLD124.LOD1	-0.194272
	2026	H	-16.661837	-19.802070	37.189954	H	1	YLD124.LOD1	0.118653
	2027	C	-16.851594	-18.671283	38.993049	C	1	YLD124.LOD1	0.029031
	2028	C	-15.891312	-19.367029	39.698919	C	1	YLD124.LOD1	-0.298661
	2029	H	-17.367565	-17.853120	39.481765	H	1	YLD124.LOD1	0.063317
	2030	C	-15.465071	-19.115164	41.020999	C	1	YLD124.LOD1	0.24754
	2031	C	-14.431369	-19.773281	41.677958	C	1	YLD124.LOD1	-0.281071
	2032	C	-16.016669	-18.073831	41.998876	C	1	YLD124.LOD1	-0.098074
	2033	C	-14.256963	-19.198380	42.984805	C	1	YLD124.LOD1	0.526995
	2034	C	-13.677148	-20.823393	41.095814	C	1	YLD124.LOD1	0.389724
	2035	O	-15.136738	-18.181048	43.151197	O	1	YLD124.LOD1	-0.351072
	2036	C	-17.474115	-18.431616	42.630037	C	1	YLD124.LOD1	0.617997
	2037	C	-16.030169	-16.571317	41.565818	C	1	YLD124.LOD1	0.253109
	2038	C	-13.381047	-19.484159	44.008605	C	1	YLD124.LOD1	-0.451385
	2039	N	-13.111455	-21.671838	40.533079	N	1	YLD124.LOD1	-0.428829
	2040	F	-17.415271	-19.702362	43.056087	F	1	YLD124.LOD1	-0.200469
	2041	F	-17.863912	-17.669128	43.663917	F	1	YLD124.LOD1	-0.158364
	2042	F	-18.433130	-18.359228	41.680232	F	1	YLD124.LOD1	-0.193377
	2043	C	-16.289427	-16.378206	40.200697	C	1	YLD124.LOD1	-0.158716
	2044	C	-15.707597	-15.461885	42.357523	C	1	YLD124.LOD1	-0.162688
	2045	C	-12.412711	-20.525124	43.916475	C	1	YLD124.LOD1	0.447489
	2046	C	-13.423802	-18.725190	45.215959	C	1	YLD124.LOD1	0.491336
	2047	H	-16.533044	-17.229702	39.572351	H	1	YLD124.LOD1	0.085247
	2048	C	-16.235760	-15.105867	39.638975	C	1	YLD124.LOD1	-0.074329
	2049	C	-15.663923	-14.184956	41.792419	C	1	YLD124.LOD1	-0.055824
	2050	H	-15.482980	-15.573574	43.410271	H	1	YLD124.LOD1	0.099228
	2051	N	-11.606652	-21.365192	43.883306	N	1	YLD124.LOD1	-0.454587
	2052	N	-13.445929	-18.112326	46.205876	N	1	YLD124.LOD1	-0.481156
	2053	H	-16.436429	-14.978146	38.579171	H	1	YLD124.LOD1	0.111202
	2054	C	-15.926458	-14.001590	40.436074	C	1	YLD124.LOD1	-0.106678
	2055	H	-15.410760	-13.335011	42.419957	H	1	YLD124.LOD1	0.095951
	2056	H	-15.885210	-13.007249	40.000268	H	1	YLD124.LOD1	0.103827
	2057	H	-15.373649	-20.180017	39.192722	H	1	YLD124.LOD1	0.159396
	2058	H	-18.462389	-16.545068	38.291693	H	1	YLD124.LOD1	-0.052081
	2059	H	-20.987688	-17.164071	35.477090	H	1	YLD124.LOD1	-0.003289
	2060	C	-20.254530	-21.228681	26.618945	C	1	YLD124.LOD1	0.198954
	2061	C	-21.890021	-19.536373	26.251725	C	1	YLD124.LOD1	0.115128
	2062	C	-21.345454	-18.596596	25.329936	C	1	YLD124.LOD1	0.306486
	2063	C	-19.059014	-20.965123	25.883773	C	1	YLD124.LOD1	0.28632
	2064	O	-18.025000	-20.574400	26.653700	O	1	YLD124.LOD1	-0.606883
	2065	O	-20.170100	-18.109000	25.772400	O	1	YLD124.LOD1	-0.600198
	2066	C	-18.773628	-16.024590	24.457860	C	1	YLD124.LOD1	0.267162
	2067	C	-15.343295	-21.680339	25.988699	C	1	YLD124.LOD1	0.369124
	2068	C	-14.186197	-22.514552	26.582404	C	1	YLD124.LOD1	-0.324271
	2069	H	-14.496261	-23.538652	26.825058	H	1	YLD124.LOD1	0.053925
	2070	H	-13.361076	-22.588731	25.859506	H	1	YLD124.LOD1	0.070181
	2071	H	-13.776974	-22.063405	27.494449	H	1	YLD124.LOD1	0.052098
	2072	C	-18.333774	-14.546405	24.546966	C	1	YLD124.LOD1	-0.316887
	2073	H	-17.765636	-14.265051	23.648780	H	1	YLD124.LOD1	0.07213
	2074	H	-19.189478	-13.863166	24.615606	H	1	YLD124.LOD1	0.059956
	2075	H	-17.685061	-14.359122	25.411694	H	1	YLD124.LOD1	0.057948
	2076	C	-14.821721	-20.269063	25.641805	C	1	YLD124.LOD1	-0.260833
	2077	H	-15.612837	-19.634819	25.224747	H	1	YLD124.LOD1	0.041714
	2078	H	-14.414114	-19.756175	26.521031	H	1	YLD124.LOD1	0.041636
	2079	H	-14.015735	-20.329529	24.896148	H	1	YLD124.LOD1	0.048242
	2080	C	-15.833500	-22.363238	24.693451	C	1	YLD124.LOD1	-0.256632
	2081	H	-15.006307	-22.459084	23.975151	H	1	YLD124.LOD1	0.046696
	2082	H	-16.220963	-23.372972	24.876876	H	1	YLD124.LOD1	0.030906
	2083	H	-16.623111	-21.784795	24.198773	H	1	YLD124.LOD1	0.051975
	2084	C	-17.520506	-16.918528	24.334197	C	1	YLD124.LOD1	-0.203727
	2085	H	-16.842891	-16.793876	25.187861	H	1	YLD124.LOD1	0.027457
	2086	H	-17.785804	-17.979521	24.268212	H	1	YLD124.LOD1	0.031775
	2087	H	-16.954393	-16.657995	23.428347	H	1	YLD124.LOD1	0.046776
	2088	C	-19.651986	-16.216040	23.202214	C	1	YLD124.LOD1	-0.249027
	2089	H	-20.541515	-15.574323	23.223093	H	1	YLD124.LOD1	0.037596
	2090	H	-19.084725	-15.956305	22.296803	H	1	YLD124.LOD1	0.055765
	2091	H	-19.988609	-17.253565	23.099062	H	1	YLD124.LOD1	0.04836
	2092	C	-21.289825	-15.494822	26.220630	C	1	YLD124.LOD1	-0.409962
	2093	H	-21.927465	-15.557793	25.331692	H	1	YLD124.LOD1	0.090944
	2094	H	-21.883795	-15.828524	27.080322	H	1	YLD124.LOD1	0.090896
	2095	H	-21.052123	-14.436876	26.385829	H	1	YLD124.LOD1	0.069902
	2096	C	-18.761103	-16.343850	27.559233	C	1	YLD124.LOD1	-0.458602
	2097	H	-19.325016	-16.668921	28.442150	H	1	YLD124.LOD1	0.097974
	2098	H	-17.849543	-16.949530	27.505449	H	1	YLD124.LOD1	0.103309
	2099	H	-18.460318	-15.303754	27.734672	H	1	YLD124.LOD1	0.085827
	2100	C	-16.233379	-20.611530	28.764914	C	1	YLD124.LOD1	-0.493974
	2101	H	-15.952109	-19.579578	28.527919	H	1	YLD124.LOD1	0.11158
	2102	H	-17.048300	-20.571287	29.496844	H	1	YLD124.LOD1	0.113577
	2103	H	-15.374608	-21.091229	29.248650	H	1	YLD124.LOD1	0.09477
	2104	C	-17.411956	-23.170622	27.735555	C	1	YLD124.LOD1	-0.483575
	2105	H	-18.237296	-23.077145	28.451878	H	1	YLD124.LOD1	0.116965
	2106	H	-17.779627	-23.744855	26.877612	H	1	YLD124.LOD1	0.100121
	2107	H	-16.630548	-23.769939	28.217926	H	1	YLD124.LOD1	0.088084
	2108	Si	-16.770300	-21.515800	27.273800	Si	1	YLD124.LOD1	0.763339
	2109	Si	-19.763800	-16.492000	26.032200	Si	1	YLD124.LOD1	0.748472
	2110	H	-18.761796	-21.834516	25.279093	H	1	YLD124.LOD1	-0.009815
	2111	H	-22.410901	-20.323123	25.698653	H	1	YLD124.LOD1	0.057511
	2112	H	-21.196887	-19.102030	24.364861	H	1	YLD124.LOD1	-0.045737
	2113	H	-22.046977	-17.765418	25.163101	H	1	YLD124.LOD1	-0.011652
	2114	H	-22.654478	-19.011981	26.834607	H	1	YLD124.LOD1	0.023801
	2115	H	-19.920312	-21.860467	27.448703	H	1	YLD124.LOD1	-0.001966
	2116	H	-20.932824	-21.842649	26.020108	H	1	YLD124.LOD1	0.031172
	2117	H	-19.326673	-20.157918	25.187979	H	1	YLD124.LOD1	-0.066029
	2118	C	-18.083738	-15.370670	35.832011	C	1	YLD124.LOD1	-0.185058
	2119	H	-18.344108	-14.634436	35.062107	H	1	YLD124.LOD1	0.04722
	2120	H	-17.616205	-14.830975	36.664248	H	1	YLD124.LOD1	0.027573
	2121	H	-17.334849	-16.047690	35.409420	H	1	YLD124.LOD1	0.00699
	2122	C	-20.353387	-15.106277	36.863146	C	1	YLD124.LOD1	-0.347891
	2123	H	-20.651732	-14.388867	36.089010	H	1	YLD124.LOD1	0.075067
	2124	H	-21.260914	-15.600935	37.230376	H	1	YLD124.LOD1	0.071859
	2125	H	-19.921454	-14.536557	37.694759	H	1	YLD124.LOD1	0.077505
	2126	C	8.956929	5.380780	26.409345	C	2	YLD124.LOD1	-0.158041
	2127	C	9.488277	5.666717	25.186651	C	2	YLD124.LOD1	-0.174247
	2128	H	8.815656	5.800363	24.340827	H	2	YLD124.LOD1	0.11023
	2129	H	9.638574	5.234959	27.245682	H	2	YLD124.LOD1	0.116594
	2130	N	3.483340	4.775724	27.906265	N	2	YLD124.LOD1	-0.477879
	2131	C	4.807636	4.940498	27.536623	C	2	YLD124.LOD1	0.383639
	2132	C	5.173639	5.251551	26.199025	C	2	YLD124.LOD1	-0.278193
	2133	C	6.497727	5.387856	25.825720	C	2	YLD124.LOD1	-0.102205
	2134	C	7.556513	5.236594	26.747374	C	2	YLD124.LOD1	0.126725
	2135	C	7.187890	4.937950	28.075254	C	2	YLD124.LOD1	-0.148338
	2136	C	5.867282	4.797528	28.467724	C	2	YLD124.LOD1	-0.248652
	2137	H	4.412882	5.389914	25.441010	H	2	YLD124.LOD1	0.176041
	2138	H	6.713363	5.623065	24.787639	H	2	YLD124.LOD1	0.098595
	2139	H	7.968296	4.817219	28.823584	H	2	YLD124.LOD1	0.105176
	2140	H	5.660628	4.578791	29.507946	H	2	YLD124.LOD1	0.157607
	2141	C	10.885886	5.800596	24.878069	C	2	YLD124.LOD1	0.13089
	2142	C	11.267238	6.055346	23.580137	C	2	YLD124.LOD1	-0.298955
	2143	C	11.943842	5.645291	25.950454	C	2	YLD124.LOD1	0.000678
	2144	H	10.490706	6.174195	22.825969	H	2	YLD124.LOD1	0.128536
	2145	C	13.287793	6.331744	25.611120	C	2	YLD124.LOD1	0.312314
	2146	H	11.574000	6.039446	26.904460	H	2	YLD124.LOD1	0.009572
	2147	C	13.702770	5.927891	24.176937	C	2	YLD124.LOD1	0.132423
	2148	H	13.936680	4.851951	24.168769	H	2	YLD124.LOD1	-0.011706
	2149	C	12.621247	6.180461	23.148257	C	2	YLD124.LOD1	0.094029
	2150	C	12.746028	6.475380	21.825735	C	2	YLD124.LOD1	-0.194272
	2151	H	11.880973	6.607398	21.176034	H	2	YLD124.LOD1	0.118653
	2152	C	14.016968	6.632523	21.228296	C	2	YLD124.LOD1	0.029031
	2153	C	14.187788	6.964766	19.899804	C	2	YLD124.LOD1	-0.298661
	2154	H	14.894931	6.494811	21.848519	H	2	YLD124.LOD1	0.063317
	2155	C	15.413061	7.181284	19.232840	C	2	YLD124.LOD1	0.24754
	2156	C	15.554644	7.604141	17.915874	C	2	YLD124.LOD1	-0.281071
	2157	C	16.826810	7.023031	19.799540	C	2	YLD124.LOD1	-0.098074
	2158	C	16.952058	7.767688	17.617103	C	2	YLD124.LOD1	0.526995
	2159	C	14.458582	7.849809	17.050557	C	2	YLD124.LOD1	0.389724
	2160	O	17.685583	7.483799	18.720736	O	2	YLD124.LOD1	-0.351072
	2161	C	17.312695	5.483223	20.007713	C	2	YLD124.LOD1	0.617997
	2162	C	17.217143	7.833127	21.078841	C	2	YLD124.LOD1	0.253109
	2163	C	17.610498	8.163952	16.474083	C	2	YLD124.LOD1	-0.451385
	2164	N	13.497496	8.029961	16.417788	N	2	YLD124.LOD1	-0.428829
	2165	F	17.029885	4.826365	18.872665	F	2	YLD124.LOD1	-0.200469
	2166	F	18.619408	5.314825	20.265361	F	2	YLD124.LOD1	-0.158364
	2167	F	16.616875	4.897233	21.007478	F	2	YLD124.LOD1	-0.193377
	2168	C	16.107477	8.395568	21.727196	C	2	YLD124.LOD1	-0.158716
	2169	C	18.499485	8.105245	21.572032	C	2	YLD124.LOD1	-0.162688
	2170	C	16.921109	8.496410	15.272422	C	2	YLD124.LOD1	0.447489
	2171	C	19.034414	8.253213	16.466376	C	2	YLD124.LOD1	0.491336
	2172	H	15.107407	8.200244	21.351799	H	2	YLD124.LOD1	0.085247
	2173	C	16.272367	9.205248	22.847234	C	2	YLD124.LOD1	-0.074329
	2174	C	18.660786	8.910642	22.702126	C	2	YLD124.LOD1	-0.055824
	2175	H	19.380558	7.704794	21.087720	H	2	YLD124.LOD1	0.099228
	2176	N	16.397986	8.777235	14.270412	N	2	YLD124.LOD1	-0.454587
	2177	N	20.196011	8.332773	16.446617	N	2	YLD124.LOD1	-0.481156
	2178	H	15.400399	9.633915	23.332705	H	2	YLD124.LOD1	0.111202
	2179	C	17.552679	9.462401	23.342345	C	2	YLD124.LOD1	-0.106678
	2180	H	19.662320	9.113177	23.071194	H	2	YLD124.LOD1	0.095951
	2181	H	17.683955	10.093028	24.217228	H	2	YLD124.LOD1	0.103827
	2182	H	13.297300	7.109988	19.290623	H	2	YLD124.LOD1	0.159396
	2183	H	14.630167	6.445509	23.910926	H	2	YLD124.LOD1	-0.052081
	2184	H	12.118981	4.570845	26.115890	H	2	YLD124.LOD1	-0.003289
	2185	C	2.415905	5.010215	27.002615	C	2	YLD124.LOD1	0.198954
	2186	C	3.067361	4.516267	29.248193	C	2	YLD124.LOD1	0.115128
	2187	C	2.553139	5.522778	30.129827	C	2	YLD124.LOD1	0.306486
	2188	C	2.087999	6.364980	26.712903	C	2	YLD124.LOD1	0.28632
	2189	O	3.079940	7.193680	27.092300	O	2	YLD124.LOD1	-0.606883
	2190	O	3.265700	5.767450	31.246700	O	2	YLD124.LOD1	-0.600198
	2191	C	2.478816	6.260156	33.922758	C	2	YLD124.LOD1	0.267162
	2192	C	4.573804	9.566576	28.089592	C	2	YLD124.LOD1	0.369124
	2193	C	4.824439	11.062544	27.795424	C	2	YLD124.LOD1	-0.324271
	2194	H	3.908941	11.660799	27.883486	H	2	YLD124.LOD1	0.053925
	2195	H	5.550454	11.474326	28.511137	H	2	YLD124.LOD1	0.070181
	2196	H	5.234363	11.223256	26.790955	H	2	YLD124.LOD1	0.052098
	2197	C	2.279571	5.627322	35.317843	C	2	YLD124.LOD1	-0.316887
	2198	H	1.914648	6.382811	36.028299	H	2	YLD124.LOD1	0.07213
	2199	H	1.542325	4.814924	35.302561	H	2	YLD124.LOD1	0.059956
	2200	H	3.214401	5.224005	35.726605	H	2	YLD124.LOD1	0.057948
	2201	C	5.909762	8.800123	27.980790	C	2	YLD124.LOD1	-0.260833
	2202	H	5.779977	7.728452	28.172483	H	2	YLD124.LOD1	0.041714
	2203	H	6.362989	8.907199	26.988140	H	2	YLD124.LOD1	0.041636
	2204	H	6.634137	9.184078	28.713684	H	2	YLD124.LOD1	0.048242
	2205	C	4.034972	9.427694	29.529970	C	2	YLD124.LOD1	-0.256632
	2206	H	4.748305	9.857590	30.248119	H	2	YLD124.LOD1	0.046696
	2207	H	3.081023	9.951072	29.669221	H	2	YLD124.LOD1	0.030906
	2208	H	3.887269	8.378435	29.812863	H	2	YLD124.LOD1	0.051975
	2209	C	3.503818	7.410128	34.030804	C	2	YLD124.LOD1	-0.203727
	2210	H	4.471875	7.061242	34.411047	H	2	YLD124.LOD1	0.027457
	2211	H	3.677046	7.889614	33.060995	H	2	YLD124.LOD1	0.031775
	2212	H	3.139899	8.181032	34.725206	H	2	YLD124.LOD1	0.046776
	2213	C	1.132057	6.833517	33.430510	C	2	YLD124.LOD1	-0.249027
	2214	H	0.355750	6.060745	33.369913	H	2	YLD124.LOD1	0.037596
	2215	H	0.769450	7.605073	34.124940	H	2	YLD124.LOD1	0.055765
	2216	H	1.226425	7.293226	32.440471	H	2	YLD124.LOD1	0.04836
	2217	C	1.923691	3.545980	32.492790	C	2	YLD124.LOD1	-0.409962
	2218	H	0.934000	3.906241	32.190327	H	2	YLD124.LOD1	0.090944
	2219	H	2.264880	2.833037	31.732179	H	2	YLD124.LOD1	0.090896
	2220	H	1.802651	2.984914	33.427455	H	2	YLD124.LOD1	0.069902
	2221	C	4.740122	4.241316	33.193651	C	2	YLD124.LOD1	-0.458602
	2222	H	5.113036	3.521616	32.454611	H	2	YLD124.LOD1	0.097974
	2223	H	5.494484	5.028803	33.300813	H	2	YLD124.LOD1	0.103309
	2224	H	4.672171	3.712215	34.152027	H	2	YLD124.LOD1	0.085827
	2225	C	4.005893	8.893556	25.111963	C	2	YLD124.LOD1	-0.493974
	2226	H	4.903160	8.272363	25.015855	H	2	YLD124.LOD1	0.11158
	2227	H	3.264948	8.515096	24.398376	H	2	YLD124.LOD1	0.113577
	2228	H	4.269346	9.913568	24.809038	H	2	YLD124.LOD1	0.09477
	2229	C	1.733325	9.729337	26.882404	C	2	YLD124.LOD1	-0.483575
	2230	H	1.020331	9.301874	26.166892	H	2	YLD124.LOD1	0.116965
	2231	H	1.268530	9.697607	27.874348	H	2	YLD124.LOD1	0.100121
	2232	H	1.864344	10.785374	26.617675	H	2	YLD124.LOD1	0.088084
	2233	Si	3.333710	8.836720	26.807300	Si	2	YLD124.LOD1	0.763339
	2234	Si	3.112660	4.924980	32.700700	Si	2	YLD124.LOD1	0.748472
	2235	H	1.889681	6.493398	25.638660	H	2	YLD124.LOD1	-0.009815
	2236	H	2.345686	3.694863	29.222497	H	2	YLD124.LOD1	0.057511
	2237	H	2.517558	6.428482	29.507461	H	2	YLD124.LOD1	-0.045737
	2238	H	1.518056	5.269504	30.404195	H	2	YLD124.LOD1	-0.011652
	2239	H	3.941750	4.141055	29.790218	H	2	YLD124.LOD1	0.023801
	2240	H	2.673552	4.525375	26.055039	H	2	YLD124.LOD1	-0.001966
	2241	H	1.527778	4.495175	27.378922	H	2	YLD124.LOD1	0.031172
	2242	H	1.165048	6.624032	27.249936	H	2	YLD124.LOD1	-0.066029
	2243	C	13.081535	7.839323	25.708569	C	2	YLD124.LOD1	-0.185058
	2244	H	12.816034	8.133946	26.730964	H	2	YLD124.LOD1	0.04722
	2245	H	14.028648	8.330793	25.455759	H	2	YLD124.LOD1	0.027573
	2246	H	12.311721	8.230227	25.035996	H	2	YLD124.LOD1	0.00699
	2247	C	14.295508	5.832648	26.593993	C	2	YLD124.LOD1	-0.347891
	2248	H	14.020114	6.086706	27.624811	H	2	YLD124.LOD1	0.075067
	2249	H	14.438296	4.746320	26.542492	H	2	YLD124.LOD1	0.071859
	2250	H	15.260349	6.308684	26.381392	H	2	YLD124.LOD1	0.077505
	2251	C	9.360763	-4.105912	24.227941	C	3	YLD124.LOD1	-0.158041
	2252	C	9.544673	-3.107291	25.137888	C	3	YLD124.LOD1	-0.174247
	2253	H	8.683883	-2.519032	25.452041	H	3	YLD124.LOD1	0.11023
	2254	H	10.230021	-4.678990	23.909608	H	3	YLD124.LOD1	0.116594
	2255	N	4.547577	-5.824130	21.688648	N	3	YLD124.LOD1	-0.477879
	2256	C	5.707399	-5.410598	22.322171	C	3	YLD124.LOD1	0.383639
	2257	C	5.702241	-4.344805	23.262351	C	3	YLD124.LOD1	-0.278193
	2258	C	6.865648	-3.914644	23.872754	C	3	YLD124.LOD1	-0.102205
	2259	C	8.117303	-4.511345	23.606933	C	3	YLD124.LOD1	0.126725
	2260	C	8.115709	-5.574869	22.681055	C	3	YLD124.LOD1	-0.148338
	2261	C	6.960695	-6.019346	22.059654	C	3	YLD124.LOD1	-0.248652
	2262	H	4.776174	-3.846589	23.520543	H	3	YLD124.LOD1	0.176041
	2263	H	6.796986	-3.093317	24.579960	H	3	YLD124.LOD1	0.098595
	2264	H	9.055557	-6.070469	22.447235	H	3	YLD124.LOD1	0.105176
	2265	H	7.035793	-6.849182	21.368029	H	3	YLD124.LOD1	0.157607
	2266	C	10.793847	-2.723015	25.736514	C	3	YLD124.LOD1	0.13089
	2267	C	10.821637	-1.663217	26.614585	C	3	YLD124.LOD1	-0.298955
	2268	C	12.079841	-3.449319	25.401694	C	3	YLD124.LOD1	0.000678
	2269	H	9.884477	-1.161143	26.850272	H	3	YLD124.LOD1	0.128536
	2270	C	13.180757	-3.306398	26.478787	C	3	YLD124.LOD1	0.312314
	2271	H	11.879067	-4.514674	25.237445	H	3	YLD124.LOD1	0.009572
	2272	C	13.316592	-1.812068	26.853903	C	3	YLD124.LOD1	0.132423
	2273	H	13.713942	-1.266257	25.984059	H	3	YLD124.LOD1	-0.011706
	2274	C	12.002182	-1.172876	27.248141	C	3	YLD124.LOD1	0.094029
	2275	C	11.771608	-0.143376	28.107625	C	3	YLD124.LOD1	-0.194272
	2276	H	10.771234	0.250084	28.287354	H	3	YLD124.LOD1	0.118653
	2277	C	12.829343	0.465543	28.819897	C	3	YLD124.LOD1	0.029031
	2278	C	12.635473	1.488439	29.725742	C	3	YLD124.LOD1	-0.298661
	2279	H	13.836288	0.102125	28.651231	H	3	YLD124.LOD1	0.063317
	2280	C	13.623829	2.124057	30.508146	C	3	YLD124.LOD1	0.24754
	2281	C	13.389819	3.090317	31.480172	C	3	YLD124.LOD1	-0.281071
	2282	C	15.136141	1.885468	30.478676	C	3	YLD124.LOD1	-0.098074
	2283	C	14.636228	3.451985	32.100202	C	3	YLD124.LOD1	0.526995
	2284	C	12.099939	3.588491	31.794031	C	3	YLD124.LOD1	0.389724
	2285	O	15.638847	2.717801	31.559475	O	3	YLD124.LOD1	-0.351072
	2286	C	15.900112	2.494216	29.176248	C	3	YLD124.LOD1	0.617997
	2287	C	15.671915	0.437000	30.723779	C	3	YLD124.LOD1	0.253109
	2288	C	14.942430	4.345210	33.102925	C	3	YLD124.LOD1	-0.451385
	2289	N	11.003446	3.932157	31.984128	N	3	YLD124.LOD1	-0.428829
	2290	F	15.475674	3.758248	29.028423	F	3	YLD124.LOD1	-0.200469
	2291	F	17.240639	2.516186	29.245124	F	3	YLD124.LOD1	-0.158364
	2292	F	15.556064	1.810822	28.061939	F	3	YLD124.LOD1	-0.193377
	2293	C	14.655862	-0.458024	31.090701	C	3	YLD124.LOD1	-0.158716
	2294	C	16.991900	-0.026724	30.658296	C	3	YLD124.LOD1	-0.162688
	2295	C	13.951866	5.147527	33.739198	C	3	YLD124.LOD1	0.447489
	2296	C	16.292919	4.491643	33.539160	C	3	YLD124.LOD1	0.491336
	2297	H	13.628687	-0.111375	31.153629	H	3	YLD124.LOD1	0.085247
	2298	C	14.948503	-1.787980	31.378511	C	3	YLD124.LOD1	-0.074329
	2299	C	17.280792	-1.364546	30.938595	C	3	YLD124.LOD1	-0.055824
	2300	H	17.804954	0.638120	30.397276	H	3	YLD124.LOD1	0.099228
	2301	N	13.174944	5.821447	34.285794	N	3	YLD124.LOD1	-0.454587
	2302	N	17.390438	4.619655	33.906707	N	3	YLD124.LOD1	-0.481156
	2303	H	14.147804	-2.464084	31.664045	H	3	YLD124.LOD1	0.111202
	2304	C	16.264792	-2.247857	31.298769	C	3	YLD124.LOD1	-0.106678
	2305	H	18.310063	-1.708042	30.884603	H	3	YLD124.LOD1	0.095951
	2306	H	16.495626	-3.285823	31.521672	H	3	YLD124.LOD1	0.103827
	2307	H	11.617812	1.837078	29.893002	H	3	YLD124.LOD1	0.159396
	2308	H	14.061863	-1.706451	27.648996	H	3	YLD124.LOD1	-0.052081
	2309	H	12.460247	-3.063071	24.443268	H	3	YLD124.LOD1	-0.003289
	2310	C	3.271977	-5.292961	22.009219	C	3	YLD124.LOD1	0.198954
	2311	C	4.528771	-6.929263	20.784683	C	3	YLD124.LOD1	0.115128
	2312	C	4.518005	-8.263280	21.293895	C	3	YLD124.LOD1	0.306486
	2313	C	2.572759	-5.875807	23.103489	C	3	YLD124.LOD1	0.28632
	2314	O	3.300850	-6.858060	23.669000	O	3	YLD124.LOD1	-0.606883
	2315	O	5.633730	-8.576600	21.980900	O	3	YLD124.LOD1	-0.600198
	2316	C	7.979556	-9.743681	23.056952	C	3	YLD124.LOD1	0.267162
	2317	C	1.934989	-8.933049	25.307742	C	3	YLD124.LOD1	0.369124
	2318	C	1.926303	-9.562875	26.718599	C	3	YLD124.LOD1	-0.324271
	2319	H	1.651941	-8.837036	27.494282	H	3	YLD124.LOD1	0.053925
	2320	H	1.192241	-10.380095	26.765632	H	3	YLD124.LOD1	0.070181
	2321	H	2.900814	-9.988204	26.987390	H	3	YLD124.LOD1	0.052098
	2322	C	9.118822	-10.755244	22.801498	C	3	YLD124.LOD1	-0.316887
	2323	H	9.797957	-10.787610	23.665447	H	3	YLD124.LOD1	0.07213
	2324	H	8.741417	-11.774013	22.648431	H	3	YLD124.LOD1	0.059956
	2325	H	9.722391	-10.486237	21.925714	H	3	YLD124.LOD1	0.057948
	2326	C	2.293844	-10.020377	24.271878	C	3	YLD124.LOD1	-0.260833
	2327	H	2.322081	-9.616979	23.252790	H	3	YLD124.LOD1	0.041714
	2328	H	3.271042	-10.473603	24.476589	H	3	YLD124.LOD1	0.041636
	2329	H	1.548731	-10.828942	24.289328	H	3	YLD124.LOD1	0.048242
	2330	C	0.521800	-8.394385	24.996203	C	3	YLD124.LOD1	-0.256632
	2331	H	-0.219305	-9.204136	25.062973	H	3	YLD124.LOD1	0.046696
	2332	H	0.210512	-7.612469	25.699795	H	3	YLD124.LOD1	0.030906
	2333	H	0.455149	-7.980680	23.982698	H	3	YLD124.LOD1	0.051975
	2334	C	8.588977	-8.344333	23.291826	C	3	YLD124.LOD1	-0.203727
	2335	H	9.185182	-8.008340	22.434451	H	3	YLD124.LOD1	0.027457
	2336	H	7.814323	-7.592099	23.477563	H	3	YLD124.LOD1	0.031775
	2337	H	9.255965	-8.360923	24.165769	H	3	YLD124.LOD1	0.046776
	2338	C	7.199240	-10.169128	24.319851	C	3	YLD124.LOD1	-0.249027
	2339	H	6.773981	-11.175326	24.218759	H	3	YLD124.LOD1	0.037596
	2340	H	7.866767	-10.184397	25.193459	H	3	YLD124.LOD1	0.055765
	2341	H	6.378022	-9.477851	24.539286	H	3	YLD124.LOD1	0.04836
	2342	C	6.015616	-11.328656	21.226545	C	3	YLD124.LOD1	-0.409962
	2343	H	5.487485	-11.699520	22.112151	H	3	YLD124.LOD1	0.090944
	2344	H	5.289305	-11.269438	20.406670	H	3	YLD124.LOD1	0.090896
	2345	H	6.759808	-12.082637	20.942407	H	3	YLD124.LOD1	0.069902
	2346	C	7.656454	-9.151054	20.013093	C	3	YLD124.LOD1	-0.458602
	2347	H	6.958996	-9.081045	19.169373	H	3	YLD124.LOD1	0.097974
	2348	H	8.121017	-8.167175	20.142883	H	3	YLD124.LOD1	0.103309
	2349	H	8.444562	-9.855888	19.721298	H	3	YLD124.LOD1	0.085827
	2350	C	4.940962	-8.172265	25.472233	C	3	YLD124.LOD1	-0.493974
	2351	H	5.226709	-8.874412	24.681321	H	3	YLD124.LOD1	0.11158
	2352	H	5.664949	-7.349387	25.459897	H	3	YLD124.LOD1	0.113577
	2353	H	5.041274	-8.689769	26.433339	H	3	YLD124.LOD1	0.09477
	2354	C	2.881982	-6.219597	26.444591	C	3	YLD124.LOD1	-0.483575
	2355	H	3.620031	-5.410843	26.379443	H	3	YLD124.LOD1	0.116965
	2356	H	1.888912	-5.774918	26.313955	H	3	YLD124.LOD1	0.100121
	2357	H	2.928347	-6.619195	27.464705	H	3	YLD124.LOD1	0.088084
	2358	Si	3.252680	-7.529510	25.215600	Si	3	YLD124.LOD1	0.763339
	2359	Si	6.807350	-9.705810	21.539600	Si	3	YLD124.LOD1	0.748472
	2360	H	2.346756	-5.104261	23.854129	H	3	YLD124.LOD1	-0.009815
	2361	H	3.692291	-6.789429	20.094084	H	3	YLD124.LOD1	0.057511
	2362	H	3.645171	-8.318197	21.960266	H	3	YLD124.LOD1	-0.045737
	2363	H	4.365677	-8.997565	20.488635	H	3	YLD124.LOD1	-0.011652
	2364	H	5.439906	-6.875022	20.179685	H	3	YLD124.LOD1	0.023801
	2365	H	3.405669	-4.225633	22.214861	H	3	YLD124.LOD1	-0.001966
	2366	H	2.641132	-5.356819	21.118376	H	3	YLD124.LOD1	0.031172
	2367	H	1.614226	-6.282389	22.752411	H	3	YLD124.LOD1	-0.066029
	2368	C	12.760250	-4.130638	27.690659	C	3	YLD124.LOD1	-0.185058
	2369	H	12.691433	-5.195216	27.436646	H	3	YLD124.LOD1	0.04722
	2370	H	13.531708	-4.021643	28.462313	H	3	YLD124.LOD1	0.027573
	2371	H	11.804026	-3.827493	28.128283	H	3	YLD124.LOD1	0.00699
	2372	C	14.453840	-3.798513	25.872447	C	3	YLD124.LOD1	-0.347891
	2373	H	14.384041	-4.852516	25.577185	H	3	YLD124.LOD1	0.075067
	2374	H	14.755503	-3.221654	24.989621	H	3	YLD124.LOD1	0.071859
	2375	H	15.254019	-3.715009	26.617745	H	3	YLD124.LOD1	0.077505
	2376	C	-18.367828	7.350957	-5.406585	C	1	YLD124_chi.LOD1	-0.150166
	2377	C	-19.179595	7.638120	-4.349405	C	1	YLD124_chi.LOD1	-0.190723
	2378	H	-19.758576	8.560189	-4.366406	H	1	YLD124_chi.LOD1	0.123134
	2379	H	-17.779643	6.435543	-5.369044	H	1	YLD124_chi.LOD1	0.111619
	2380	N	-17.371312	10.399843	-10.125241	N	1	YLD124_chi.LOD1	-0.506176
	2381	C	-17.646111	9.650396	-8.993615	C	1	YLD124_chi.LOD1	0.404469
	2382	C	-18.597053	10.079988	-8.028799	C	1	YLD124_chi.LOD1	-0.281203
	2383	C	-18.836543	9.352941	-6.877526	C	1	YLD124_chi.LOD1	-0.112562
	2384	C	-18.164265	8.142469	-6.601580	C	1	YLD124_chi.LOD1	0.131862
	2385	C	-17.241449	7.706973	-7.574718	C	1	YLD124_chi.LOD1	-0.140167
	2386	C	-16.986557	8.422822	-8.732324	C	1	YLD124_chi.LOD1	-0.26473
	2387	H	-19.157578	10.993757	-8.181537	H	1	YLD124_chi.LOD1	0.177954
	2388	H	-19.571495	9.735905	-6.175603	H	1	YLD124_chi.LOD1	0.098859
	2389	H	-16.706463	6.773722	-7.412129	H	1	YLD124_chi.LOD1	0.103807
	2390	H	-16.268852	8.021943	-9.437161	H	1	YLD124_chi.LOD1	0.161189
	2391	C	-19.330826	6.845383	-3.159641	C	1	YLD124_chi.LOD1	0.100982
	2392	C	-20.139602	7.301465	-2.143488	C	1	YLD124_chi.LOD1	-0.303623
	2393	C	-18.586156	5.537487	-2.992371	C	1	YLD124_chi.LOD1	0.096207
	2394	H	-20.675204	8.238494	-2.288353	H	1	YLD124_chi.LOD1	0.124941
	2395	C	-19.217593	4.582810	-1.952274	C	1	YLD124_chi.LOD1	0.409462
	2396	H	-18.517159	5.018662	-3.956011	H	1	YLD124_chi.LOD1	-0.020765
	2397	C	-19.504047	5.379097	-0.657672	C	1	YLD124_chi.LOD1	-0.014279
	2398	H	-18.543954	5.672975	-0.205782	H	1	YLD124_chi.LOD1	-0.02177
	2399	C	-20.316223	6.634525	-0.894645	C	1	YLD124_chi.LOD1	0.179445
	2400	C	-21.167676	7.277403	-0.051472	C	1	YLD124_chi.LOD1	-0.27725
	2401	H	-21.681200	8.196607	-0.332917	H	1	YLD124_chi.LOD1	0.132087
	2402	C	-21.429746	6.776985	1.243974	C	1	YLD124_chi.LOD1	0.141075
	2403	C	-22.283844	7.400525	2.130688	C	1	YLD124_chi.LOD1	-0.327608
	2404	H	-20.922875	5.871431	1.556547	H	1	YLD124_chi.LOD1	-0.027316
	2405	C	-22.594254	6.985083	3.443760	C	1	YLD124_chi.LOD1	0.260653
	2406	C	-23.403851	7.674274	4.339645	C	1	YLD124_chi.LOD1	-0.287606
	2407	C	-22.117091	5.720188	4.162598	C	1	YLD124_chi.LOD1	-0.056548
	2408	C	-23.448907	6.959237	5.586872	C	1	YLD124_chi.LOD1	0.509074
	2409	C	-24.045822	8.900279	4.030787	C	1	YLD124_chi.LOD1	0.396907
	2410	O	-22.671718	5.853058	5.501126	O	1	YLD124_chi.LOD1	-0.366332
	2411	C	-20.578287	5.480495	4.323427	C	1	YLD124_chi.LOD1	0.253806
	2412	C	-22.793776	4.329365	3.633610	C	1	YLD124_chi.LOD1	0.598114
	2413	C	-24.094764	7.218822	6.775499	C	1	YLD124_chi.LOD1	-0.43234
	2414	N	-24.527173	9.903499	3.686723	N	1	YLD124_chi.LOD1	-0.430249
	2415	C	-24.920422	8.364884	6.961386	C	1	YLD124_chi.LOD1	0.437474
	2416	C	-23.948054	6.323467	7.876561	C	1	YLD124_chi.LOD1	0.49223
	2417	N	-25.602971	9.288215	7.156694	N	1	YLD124_chi.LOD1	-0.451871
	2418	N	-23.835688	5.602404	8.784018	N	1	YLD124_chi.LOD1	-0.482758
	2419	H	-22.766242	8.322845	1.811678	H	1	YLD124_chi.LOD1	0.157364
	2420	H	-19.996448	4.723180	0.067786	H	1	YLD124_chi.LOD1	0.040059
	2421	H	-17.549376	5.761156	-2.696140	H	1	YLD124_chi.LOD1	-0.024244
	2422	C	-18.034305	11.606451	-10.480014	C	1	YLD124_chi.LOD1	0.240322
	2423	C	-16.462516	9.945080	-11.130705	C	1	YLD124_chi.LOD1	0.113854
	2424	C	-16.939510	8.986000	-12.066826	C	1	YLD124_chi.LOD1	0.29958
	2425	C	-18.707785	11.735228	-11.730445	C	1	YLD124_chi.LOD1	0.285774
	2426	O	-17.877200	11.736100	-12.791800	O	1	YLD124_chi.LOD1	-0.61175
	2427	O	-18.271900	8.822840	-11.950600	O	1	YLD124_chi.LOD1	-0.599726
	2428	C	-20.812208	7.947209	-12.881611	C	1	YLD124_chi.LOD1	0.275329
	2429	C	-17.627997	14.501363	-13.841867	C	1	YLD124_chi.LOD1	0.358728
	2430	C	-18.275523	15.368964	-14.943862	C	1	YLD124_chi.LOD1	-0.337707
	2431	H	-19.363793	15.236813	-14.987371	H	1	YLD124_chi.LOD1	0.059176
	2432	H	-18.085892	16.434658	-14.750933	H	1	YLD124_chi.LOD1	0.075606
	2433	H	-17.870616	15.144049	-15.938258	H	1	YLD124_chi.LOD1	0.056098
	2434	C	-21.092704	7.065704	-14.118715	C	1	YLD124_chi.LOD1	-0.311529
	2435	H	-22.030429	7.375991	-14.601572	H	1	YLD124_chi.LOD1	0.071087
	2436	H	-20.299711	7.145262	-14.872821	H	1	YLD124_chi.LOD1	0.058721
	2437	H	-21.200319	6.005897	-13.856208	H	1	YLD124_chi.LOD1	0.056179
	2438	C	-16.109285	14.778662	-13.806078	C	1	YLD124_chi.LOD1	-0.279876
	2439	H	-15.602980	14.168074	-13.049038	H	1	YLD124_chi.LOD1	0.048405
	2440	H	-15.631892	14.574562	-14.771868	H	1	YLD124_chi.LOD1	0.047411
	2441	H	-15.917878	15.834065	-13.563819	H	1	YLD124_chi.LOD1	0.054899
	2442	C	-18.236604	14.893050	-12.477734	C	1	YLD124_chi.LOD1	-0.273001
	2443	H	-18.075352	15.962846	-12.280516	H	1	YLD124_chi.LOD1	0.0526
	2444	H	-19.318776	14.716966	-12.438506	H	1	YLD124_chi.LOD1	0.034813
	2445	H	-17.775712	14.340747	-11.649915	H	1	YLD124_chi.LOD1	0.061699
	2446	C	-21.979178	7.802219	-11.880777	C	1	YLD124_chi.LOD1	-0.202774
	2447	H	-22.114745	6.763596	-11.554455	H	1	YLD124_chi.LOD1	0.027959
	2448	H	-21.823202	8.417454	-10.987648	H	1	YLD124_chi.LOD1	0.030756
	2449	H	-22.922324	8.122732	-12.346458	H	1	YLD124_chi.LOD1	0.045471
	2450	C	-20.713529	9.423460	-13.323903	C	1	YLD124_chi.LOD1	-0.266625
	2451	H	-19.920575	9.576805	-14.066211	H	1	YLD124_chi.LOD1	0.041283
	2452	H	-21.657745	9.747137	-13.785095	H	1	YLD124_chi.LOD1	0.059445
	2453	H	-20.512800	10.086481	-12.475066	H	1	YLD124_chi.LOD1	0.054675
	2454	C	-18.249365	6.173571	-13.074416	C	1	YLD124_chi.LOD1	-0.410828
	2455	H	-17.709732	5.453512	-12.449075	H	1	YLD124_chi.LOD1	0.093855
	2456	H	-18.925370	5.606042	-13.725797	H	1	YLD124_chi.LOD1	0.090546
	2457	H	-17.515732	6.665926	-13.724239	H	1	YLD124_chi.LOD1	0.070213
	2458	C	-19.436837	6.710851	-10.386472	C	1	YLD124_chi.LOD1	-0.460074
	2459	H	-20.275787	7.204280	-9.880591	H	1	YLD124_chi.LOD1	0.099819
	2460	H	-19.654156	5.637408	-10.418255	H	1	YLD124_chi.LOD1	0.10243
	2461	H	-18.552679	6.853434	-9.753509	H	1	YLD124_chi.LOD1	0.086844
	2462	C	-16.576081	11.931007	-15.235467	C	1	YLD124_chi.LOD1	-0.477029
	2463	H	-16.480830	12.455880	-16.192343	H	1	YLD124_chi.LOD1	0.107463
	2464	H	-15.616065	12.019819	-14.713921	H	1	YLD124_chi.LOD1	0.106999
	2465	H	-16.740891	10.868696	-15.450761	H	1	YLD124_chi.LOD1	0.090486
	2466	C	-19.530723	12.389452	-15.056828	C	1	YLD124_chi.LOD1	-0.470103
	2467	H	-20.355959	12.446768	-14.336491	H	1	YLD124_chi.LOD1	0.112461
	2468	H	-19.725353	13.124937	-15.845868	H	1	YLD124_chi.LOD1	0.098066
	2469	H	-19.574613	11.396559	-15.520173	H	1	YLD124_chi.LOD1	0.083138
	2470	Si	-17.919300	12.634800	-14.218500	Si	1	YLD124_chi.LOD1	0.770043
	2471	Si	-19.166600	7.397080	-12.064500	Si	1	YLD124_chi.LOD1	0.73989
	2472	H	-19.379359	10.866102	-11.785326	H	1	YLD124_chi.LOD1	-0.017464
	2473	H	-16.116980	10.815241	-11.696066	H	1	YLD124_chi.LOD1	0.058354
	2474	H	-16.696545	9.295135	-13.093495	H	1	YLD124_chi.LOD1	-0.04034
	2475	H	-16.434210	8.026122	-11.882111	H	1	YLD124_chi.LOD1	-0.007901
	2476	H	-15.581979	9.540080	-10.621051	H	1	YLD124_chi.LOD1	0.028132
	2477	H	-18.716831	11.843927	-9.657664	H	1	YLD124_chi.LOD1	-0.011538
	2478	H	-17.284968	12.403004	-10.495895	H	1	YLD124_chi.LOD1	0.020652
	2479	H	-19.335626	12.636609	-11.759791	H	1	YLD124_chi.LOD1	-0.064856
	2480	C	-20.505016	4.034322	-2.545246	C	1	YLD124_chi.LOD1	-0.299384
	2481	H	-20.302940	3.445244	-3.447843	H	1	YLD124_chi.LOD1	0.066854
	2482	H	-20.961935	3.364444	-1.807040	H	1	YLD124_chi.LOD1	0.072315
	2483	H	-21.242389	4.800843	-2.803218	H	1	YLD124_chi.LOD1	0.027971
	2484	C	-18.211986	3.509597	-1.679632	C	1	YLD124_chi.LOD1	-0.427943
	2485	H	-17.972821	2.937040	-2.583972	H	1	YLD124_chi.LOD1	0.089807
	2486	H	-17.271801	3.898152	-1.269472	H	1	YLD124_chi.LOD1	0.091303
	2487	H	-18.634619	2.811314	-0.947223	H	1	YLD124_chi.LOD1	0.089757
	2488	C	-19.863815	6.629307	4.695398	C	1	YLD124_chi.LOD1	-0.158763
	2489	C	-19.879351	4.281818	4.131696	C	1	YLD124_chi.LOD1	-0.147279
	2490	C	-18.483016	6.585040	4.865701	C	1	YLD124_chi.LOD1	-0.065518
	2491	H	-20.391595	7.564614	4.855623	H	1	YLD124_chi.LOD1	0.080042
	2492	C	-18.492823	4.243135	4.294739	C	1	YLD124_chi.LOD1	-0.090746
	2493	H	-20.397502	3.370786	3.862246	H	1	YLD124_chi.LOD1	0.09871
	2494	C	-17.790789	5.389609	4.661794	C	1	YLD124_chi.LOD1	-0.09866
	2495	H	-17.949296	7.485001	5.157314	H	1	YLD124_chi.LOD1	0.104949
	2496	H	-16.712917	5.352779	4.792766	H	1	YLD124_chi.LOD1	0.102095
	2497	H	-17.966224	3.305294	4.141907	H	1	YLD124_chi.LOD1	0.105434
	2498	F	-21.941934	3.590209	2.906909	F	1	YLD124_chi.LOD1	-0.19867
	2499	F	-23.818008	4.674505	2.836832	F	1	YLD124_chi.LOD1	-0.154403
	2500	F	-23.285688	3.544356	4.618251	F	1	YLD124_chi.LOD1	-0.186491
	2501	C	15.698481	-12.523851	25.331369	C	1	YLD124.LOD1	-0.158041
	2502	C	14.964323	-13.631013	25.638415	C	1	YLD124.LOD1	-0.174247
	2503	H	13.894843	-13.624386	25.433797	H	1	YLD124.LOD1	0.11023
	2504	H	16.764391	-12.535088	25.552889	H	1	YLD124.LOD1	0.116594
	2505	N	13.994767	-7.608414	22.985546	N	1	YLD124.LOD1	-0.477879
	2506	C	14.401323	-8.810756	23.539292	C	1	YLD124.LOD1	0.383639
	2507	C	13.482346	-9.868056	23.779042	C	1	YLD124.LOD1	-0.278193
	2508	C	13.884700	-11.057229	24.357943	C	1	YLD124.LOD1	-0.102205
	2509	C	15.225090	-11.293117	24.733530	C	1	YLD124.LOD1	0.126725
	2510	C	16.134909	-10.245009	24.484458	C	1	YLD124.LOD1	-0.148338
	2511	C	15.750426	-9.047065	23.905788	C	1	YLD124.LOD1	-0.248652
	2512	H	12.439608	-9.759495	23.508131	H	1	YLD124.LOD1	0.176041
	2513	H	13.134497	-11.825946	24.518266	H	1	YLD124.LOD1	0.098595
	2514	H	17.180676	-10.381283	24.751675	H	1	YLD124.LOD1	0.105176
	2515	H	16.507843	-8.292255	23.734922	H	1	YLD124.LOD1	0.157607
	2516	C	15.460646	-14.840409	26.236313	C	1	YLD124.LOD1	0.13089
	2517	C	14.581352	-15.860563	26.521057	C	1	YLD124.LOD1	-0.298955
	2518	C	16.927420	-15.001955	26.576723	C	1	YLD124.LOD1	0.000678
	2519	H	13.532683	-15.728842	26.258686	H	1	YLD124.LOD1	0.128536
	2520	C	17.388475	-16.474385	26.686019	C	1	YLD124.LOD1	0.312314
	2521	H	17.546077	-14.489983	25.830119	H	1	YLD124.LOD1	0.009572
	2522	C	16.389257	-17.241676	27.583244	C	1	YLD124.LOD1	0.132423
	2523	H	16.470207	-16.853845	28.610600	H	1	YLD124.LOD1	-0.011706
	2524	C	14.950058	-17.093043	27.137957	C	1	YLD124.LOD1	0.094029
	2525	C	13.913467	-17.963431	27.278203	C	1	YLD124.LOD1	-0.194272
	2526	H	12.905661	-17.725958	26.937919	H	1	YLD124.LOD1	0.118653
	2527	C	14.099167	-19.232192	27.872069	C	1	YLD124.LOD1	0.029031
	2528	C	13.083650	-20.157434	28.002867	C	1	YLD124.LOD1	-0.298661
	2529	H	15.088882	-19.489901	28.230554	H	1	YLD124.LOD1	0.063317
	2530	C	13.188321	-21.457581	28.542938	C	1	YLD124.LOD1	0.24754
	2531	C	12.169987	-22.403554	28.580135	C	1	YLD124.LOD1	-0.281071
	2532	C	14.420335	-22.110864	29.175584	C	1	YLD124.LOD1	-0.098074
	2533	C	12.675513	-23.623538	29.150100	C	1	YLD124.LOD1	0.526995
	2534	C	10.860339	-22.163340	28.092695	C	1	YLD124.LOD1	0.389724
	2535	O	13.989616	-23.472984	29.445267	O	1	YLD124.LOD1	-0.351072
	2536	C	14.802638	-21.558724	30.658640	C	1	YLD124.LOD1	0.617997
	2537	C	15.736483	-22.200576	28.335915	C	1	YLD124.LOD1	0.253109
	2538	C	12.080700	-24.840358	29.400316	C	1	YLD124.LOD1	-0.451385
	2539	N	9.816855	-21.874528	27.663432	N	1	YLD124.LOD1	-0.428829
	2540	F	13.671261	-21.556697	31.379583	F	1	YLD124.LOD1	-0.200469
	2541	F	15.716406	-22.277590	31.329833	F	1	YLD124.LOD1	-0.158364
	2542	F	15.249979	-20.285052	30.589905	F	1	YLD124.LOD1	-0.193377
	2543	C	15.517111	-22.000027	26.964886	C	1	YLD124.LOD1	-0.158716
	2544	C	17.037532	-22.464919	28.782098	C	1	YLD124.LOD1	-0.162688
	2545	C	10.709467	-25.094068	29.108555	C	1	YLD124.LOD1	0.447489
	2546	C	12.843044	-25.902286	29.971898	C	1	YLD124.LOD1	0.491336
	2547	H	14.512669	-21.802038	26.602791	H	1	YLD124.LOD1	0.085247
	2548	C	16.572979	-22.054246	26.059647	C	1	YLD124.LOD1	-0.074329
	2549	C	18.096491	-22.509223	27.871912	C	1	YLD124.LOD1	-0.055824
	2550	H	17.243110	-22.643501	29.829501	H	1	YLD124.LOD1	0.099228
	2551	N	9.594001	-25.344254	28.885653	N	1	YLD124.LOD1	-0.454587
	2552	N	13.453835	-26.778483	30.435839	N	1	YLD124.LOD1	-0.481156
	2553	H	16.381456	-21.899591	25.001740	H	1	YLD124.LOD1	0.111202
	2554	C	17.870237	-22.305192	26.511986	C	1	YLD124.LOD1	-0.106678
	2555	H	19.099519	-22.716813	28.234048	H	1	YLD124.LOD1	0.095951
	2556	H	18.696306	-22.346728	25.807551	H	1	YLD124.LOD1	0.103827
	2557	H	12.096766	-19.889469	27.629482	H	1	YLD124.LOD1	0.159396
	2558	H	16.682127	-18.295654	27.629218	H	1	YLD124.LOD1	-0.052081
	2559	H	17.123059	-14.490600	27.532086	H	1	YLD124.LOD1	-0.003289
	2560	C	12.677571	-7.360094	22.518154	C	1	YLD124.LOD1	0.198954
	2561	C	14.919694	-6.561809	22.690149	C	1	YLD124.LOD1	0.115128
	2562	C	15.760204	-6.672793	21.541848	C	1	YLD124.LOD1	0.306486
	2563	C	12.447843	-7.368804	21.113151	C	1	YLD124.LOD1	0.28632
	2564	O	13.496200	-7.902460	20.456800	O	1	YLD124.LOD1	-0.606883
	2565	O	16.530100	-7.778130	21.564300	O	1	YLD124.LOD1	-0.600198
	2566	C	18.813448	-7.855322	19.890087	C	1	YLD124.LOD1	0.267162
	2567	C	13.757420	-8.815398	17.636294	C	1	YLD124.LOD1	0.369124
	2568	C	13.862609	-10.091687	16.771831	C	1	YLD124.LOD1	-0.324271
	2569	H	12.961080	-10.713298	16.839985	H	1	YLD124.LOD1	0.053925
	2570	H	13.992293	-9.824271	15.713257	H	1	YLD124.LOD1	0.070181
	2571	H	14.720465	-10.713403	17.055341	H	1	YLD124.LOD1	0.052098
	2572	C	20.357352	-7.899227	19.860526	C	1	YLD124.LOD1	-0.316887
	2573	H	20.716559	-7.909764	18.821517	H	1	YLD124.LOD1	0.07213
	2574	H	20.805890	-7.025154	20.348959	H	1	YLD124.LOD1	0.059956
	2575	H	20.755206	-8.797280	20.349270	H	1	YLD124.LOD1	0.057948
	2576	C	15.043595	-7.979381	17.460507	C	1	YLD124.LOD1	-0.260833
	2577	H	15.019383	-7.064905	18.064838	H	1	YLD124.LOD1	0.041714
	2578	H	15.939754	-8.542637	17.746650	H	1	YLD124.LOD1	0.041636
	2579	H	15.167376	-7.680648	16.409455	H	1	YLD124.LOD1	0.048242
	2580	C	12.551370	-7.983721	17.148363	C	1	YLD124.LOD1	-0.256632
	2581	H	12.666184	-7.731825	16.084053	H	1	YLD124.LOD1	0.046696
	2582	H	11.603398	-8.525928	17.251775	H	1	YLD124.LOD1	0.030906
	2583	H	12.458598	-7.037093	17.694327	H	1	YLD124.LOD1	0.051975
	2584	C	18.258130	-9.098015	19.160654	C	1	YLD124.LOD1	-0.203727
	2585	H	18.602092	-10.031624	19.622720	H	1	YLD124.LOD1	0.027457
	2586	H	17.162540	-9.108753	19.157328	H	1	YLD124.LOD1	0.031775
	2587	H	18.596243	-9.108614	18.114474	H	1	YLD124.LOD1	0.046776
	2588	C	18.329504	-6.585452	19.156573	C	1	YLD124.LOD1	-0.249027
	2589	H	18.726462	-5.671358	19.615220	H	1	YLD124.LOD1	0.037596
	2590	H	18.667163	-6.597433	18.110218	H	1	YLD124.LOD1	0.055765
	2591	H	17.236309	-6.512444	19.153742	H	1	YLD124.LOD1	0.04836
	2592	C	18.800484	-6.361990	22.626759	C	1	YLD124.LOD1	-0.409962
	2593	H	18.523973	-5.431147	22.118986	H	1	YLD124.LOD1	0.090944
	2594	H	18.381830	-6.325187	23.639973	H	1	YLD124.LOD1	0.090896
	2595	H	19.892325	-6.373119	22.730692	H	1	YLD124.LOD1	0.069902
	2596	C	18.700433	-9.344762	22.626795	C	1	YLD124.LOD1	-0.458602
	2597	H	18.299126	-9.341985	23.647656	H	1	YLD124.LOD1	0.097974
	2598	H	18.341790	-10.253793	22.131095	H	1	YLD124.LOD1	0.103309
	2599	H	19.791561	-9.419025	22.710314	H	1	YLD124.LOD1	0.085827
	2600	C	15.042499	-10.174262	20.114993	C	1	YLD124.LOD1	-0.493974
	2601	H	15.937531	-9.543758	20.075150	H	1	YLD124.LOD1	0.11158
	2602	H	14.893628	-10.469689	21.159980	H	1	YLD124.LOD1	0.113577
	2603	H	15.246029	-11.083525	19.537574	H	1	YLD124.LOD1	0.09477
	2604	C	12.067257	-10.300876	19.754958	C	1	YLD124.LOD1	-0.483575
	2605	H	11.950859	-10.553027	20.816049	H	1	YLD124.LOD1	0.116965
	2606	H	11.148871	-9.799141	19.429658	H	1	YLD124.LOD1	0.100121
	2607	H	12.135242	-11.245897	19.202895	H	1	YLD124.LOD1	0.088084
	2608	Si	13.573300	-9.286750	19.496100	Si	1	YLD124.LOD1	0.763339
	2609	Si	18.210200	-7.835180	21.710400	Si	1	YLD124.LOD1	0.748472
	2610	H	11.535779	-7.936123	20.876278	H	1	YLD124.LOD1	-0.009815
	2611	H	14.367066	-5.618602	22.656332	H	1	YLD124.LOD1	0.057511
	2612	H	15.084332	-6.709829	20.675402	H	1	YLD124.LOD1	-0.045737
	2613	H	16.398771	-5.784300	21.425078	H	1	YLD124.LOD1	-0.011652
	2614	H	15.610846	-6.483565	23.535914	H	1	YLD124.LOD1	0.023801
	2615	H	12.031209	-8.123668	22.963714	H	1	YLD124.LOD1	-0.001966
	2616	H	12.349639	-6.402071	22.930824	H	1	YLD124.LOD1	0.031172
	2617	H	12.288203	-6.335487	20.775330	H	1	YLD124.LOD1	-0.066029
	2618	C	17.412813	-17.063238	25.279741	C	1	YLD124.LOD1	-0.185058
	2619	H	18.141675	-16.541293	24.648142	H	1	YLD124.LOD1	0.04722
	2620	H	17.726481	-18.111393	25.353641	H	1	YLD124.LOD1	0.027573
	2621	H	16.446084	-17.038578	24.767293	H	1	YLD124.LOD1	0.00699
	2622	C	18.740692	-16.464485	27.320005	C	1	YLD124.LOD1	-0.347891
	2623	H	19.469900	-15.910469	26.716436	H	1	YLD124.LOD1	0.075067
	2624	H	18.735776	-16.027112	28.325903	H	1	YLD124.LOD1	0.071859
	2625	H	19.097222	-17.498121	27.404928	H	1	YLD124.LOD1	0.077505
	2626	C	9.734210	-2.046340	21.886506	C	1	YLD124_chi.LOD1	-0.150166
	2627	C	8.669061	-1.324705	22.337904	C	1	YLD124_chi.LOD1	-0.190723
	2628	H	8.836214	-0.554976	23.089765	H	1	YLD124_chi.LOD1	0.123134
	2629	H	9.551233	-2.825949	21.148887	H	1	YLD124_chi.LOD1	0.111619
	2630	N	15.215143	-1.751257	23.444310	N	1	YLD124_chi.LOD1	-0.506176
	2631	C	13.889061	-1.791521	23.047261	C	1	YLD124_chi.LOD1	0.404469
	2632	C	12.925229	-0.892050	23.578006	C	1	YLD124_chi.LOD1	-0.281203
	2633	C	11.593332	-0.963771	23.214290	C	1	YLD124_chi.LOD1	-0.112562
	2634	C	11.118724	-1.920060	22.290383	C	1	YLD124_chi.LOD1	0.131862
	2635	C	12.083608	-2.792666	21.746508	C	1	YLD124_chi.LOD1	-0.140167
	2636	C	13.421173	-2.737594	22.100558	C	1	YLD124_chi.LOD1	-0.26473
	2637	H	13.221412	-0.125617	24.283234	H	1	YLD124_chi.LOD1	0.177954
	2638	H	10.903869	-0.251817	23.658444	H	1	YLD124_chi.LOD1	0.098859
	2639	H	11.768034	-3.539997	21.021585	H	1	YLD124_chi.LOD1	0.103807
	2640	H	14.105232	-3.436564	21.635688	H	1	YLD124_chi.LOD1	0.161189
	2641	C	7.298714	-1.501218	21.940622	C	1	YLD124_chi.LOD1	0.100982
	2642	C	6.319887	-0.739413	22.537486	C	1	YLD124_chi.LOD1	-0.303623
	2643	C	6.912644	-2.536317	20.904946	C	1	YLD124_chi.LOD1	0.096207
	2644	H	6.619693	0.007222	23.271334	H	1	YLD124_chi.LOD1	0.124941
	2645	C	5.550363	-2.267042	20.224062	C	1	YLD124_chi.LOD1	0.409462
	2646	H	7.689086	-2.603486	20.133474	H	1	YLD124_chi.LOD1	-0.020765
	2647	C	4.499472	-1.967105	21.318496	C	1	YLD124_chi.LOD1	-0.014279
	2648	H	4.331094	-2.883593	21.905052	H	1	YLD124_chi.LOD1	-0.02177
	2649	C	4.924270	-0.870153	22.271452	C	1	YLD124_chi.LOD1	0.179445
	2650	C	4.152805	-0.004120	22.981307	C	1	YLD124_chi.LOD1	-0.27725
	2651	H	4.580443	0.733669	23.660016	H	1	YLD124_chi.LOD1	0.132087
	2652	C	2.744044	-0.020335	22.869916	C	1	YLD124_chi.LOD1	0.141075
	2653	C	1.925641	0.838709	23.574761	C	1	YLD124_chi.LOD1	-0.327608
	2654	H	2.289648	-0.752379	22.212433	H	1	YLD124_chi.LOD1	-0.027316
	2655	C	0.515108	0.886260	23.539523	C	1	YLD124_chi.LOD1	0.260653
	2656	C	-0.285493	1.715983	24.316465	C	1	YLD124_chi.LOD1	-0.287606
	2657	C	-0.427917	0.052745	22.667555	C	1	YLD124_chi.LOD1	-0.056548
	2658	C	-1.668919	1.447407	24.028572	C	1	YLD124_chi.LOD1	0.509074
	2659	C	0.230020	2.650458	25.250066	C	1	YLD124_chi.LOD1	0.396907
	2660	O	-1.754266	0.456972	23.108374	O	1	YLD124_chi.LOD1	-0.366332
	2661	C	-0.364770	-1.508234	22.769051	C	1	YLD124_chi.LOD1	0.253806
	2662	C	-0.440300	0.460534	21.084849	C	1	YLD124_chi.LOD1	0.598114
	2663	C	-2.835316	1.986538	24.524765	C	1	YLD124_chi.LOD1	-0.43234
	2664	N	0.746004	3.383670	25.993497	N	1	YLD124_chi.LOD1	-0.430249
	2665	C	-2.842126	3.020710	25.504644	C	1	YLD124_chi.LOD1	0.437474
	2666	C	-4.096125	1.509590	24.057428	C	1	YLD124_chi.LOD1	0.49223
	2667	N	-2.893729	3.865163	26.305141	N	1	YLD124_chi.LOD1	-0.451871
	2668	N	-5.132104	1.128572	23.686473	N	1	YLD124_chi.LOD1	-0.482758
	2669	H	2.395257	1.551656	24.250273	H	1	YLD124_chi.LOD1	0.157364
	2670	H	3.542557	-1.726793	20.843585	H	1	YLD124_chi.LOD1	0.040059
	2671	H	6.885474	-3.523946	21.391304	H	1	YLD124_chi.LOD1	-0.024244
	2672	C	15.698025	-0.763843	24.342091	C	1	YLD124_chi.LOD1	0.240322
	2673	C	16.212860	-2.603992	22.876686	C	1	YLD124_chi.LOD1	0.113854
	2674	C	16.962025	-2.166568	21.744976	C	1	YLD124_chi.LOD1	0.29958
	2675	C	15.758218	0.573228	23.861595	C	1	YLD124_chi.LOD1	0.285774
	2676	O	15.185400	0.677399	22.646100	O	1	YLD124_chi.LOD1	-0.61175
	2677	O	17.680700	-1.053220	21.989000	O	1	YLD124_chi.LOD1	-0.599726
	2678	C	20.187322	-0.272415	20.864390	C	1	YLD124_chi.LOD1	0.275329
	2679	C	13.461636	2.079496	20.672128	C	1	YLD124_chi.LOD1	0.358728
	2680	C	12.351347	2.097630	21.746067	C	1	YLD124_chi.LOD1	-0.337707
	2681	H	12.437735	2.963078	22.414818	H	1	YLD124_chi.LOD1	0.059176
	2682	H	11.361576	2.153032	21.270494	H	1	YLD124_chi.LOD1	0.075606
	2683	H	12.361208	1.192729	22.366079	H	1	YLD124_chi.LOD1	0.056098
	2684	C	19.354066	-0.587950	19.602535	C	1	YLD124_chi.LOD1	-0.311529
	2685	H	19.847799	-0.179282	18.709240	H	1	YLD124_chi.LOD1	0.071087
	2686	H	19.237716	-1.667048	19.441738	H	1	YLD124_chi.LOD1	0.058721
	2687	H	18.350977	-0.145821	19.647438	H	1	YLD124_chi.LOD1	0.056179
	2688	C	13.245024	0.867330	19.740252	C	1	YLD124_chi.LOD1	-0.279876
	2689	H	14.023806	0.802430	18.971123	H	1	YLD124_chi.LOD1	0.048405
	2690	H	13.243152	-0.079884	20.292604	H	1	YLD124_chi.LOD1	0.047411
	2691	H	12.276321	0.947344	19.226040	H	1	YLD124_chi.LOD1	0.054899
	2692	C	13.365494	3.373258	19.834503	C	1	YLD124_chi.LOD1	-0.273001
	2693	H	12.371829	3.454965	19.370483	H	1	YLD124_chi.LOD1	0.0526
	2694	H	13.513301	4.274728	20.442076	H	1	YLD124_chi.LOD1	0.034813
	2695	H	14.101881	3.390758	19.021993	H	1	YLD124_chi.LOD1	0.061699
	2696	C	20.328276	1.258509	21.009006	C	1	YLD124_chi.LOD1	-0.202774
	2697	H	19.353728	1.755383	21.092521	H	1	YLD124_chi.LOD1	0.027959
	2698	H	20.919343	1.527439	21.891524	H	1	YLD124_chi.LOD1	0.030756
	2699	H	20.833646	1.679360	20.127758	H	1	YLD124_chi.LOD1	0.045471
	2700	C	21.593602	-0.891503	20.710167	C	1	YLD124_chi.LOD1	-0.266625
	2701	H	21.549571	-1.978131	20.566601	H	1	YLD124_chi.LOD1	0.041283
	2702	H	22.102417	-0.467839	19.832314	H	1	YLD124_chi.LOD1	0.059445
	2703	H	22.220290	-0.692877	21.586650	H	1	YLD124_chi.LOD1	0.054675
	2704	C	19.542810	0.057224	23.881896	C	1	YLD124_chi.LOD1	-0.410828
	2705	H	19.085631	-0.383556	24.774892	H	1	YLD124_chi.LOD1	0.093855
	2706	H	20.606255	0.217277	24.098312	H	1	YLD124_chi.LOD1	0.090546
	2707	H	19.093500	1.046346	23.731366	H	1	YLD124_chi.LOD1	0.070213
	2708	C	19.894735	-2.701006	22.793419	C	1	YLD124_chi.LOD1	-0.460074
	2709	H	19.642800	-3.405056	21.990881	H	1	YLD124_chi.LOD1	0.099819
	2710	H	20.980706	-2.734790	22.934993	H	1	YLD124_chi.LOD1	0.10243
	2711	H	19.427039	-3.079825	23.710187	H	1	YLD124_chi.LOD1	0.086844
	2712	C	15.565149	3.422320	22.491436	C	1	YLD124_chi.LOD1	-0.477029
	2713	H	16.422007	3.965684	22.078248	H	1	YLD124_chi.LOD1	0.107463
	2714	H	14.708653	4.106379	22.488521	H	1	YLD124_chi.LOD1	0.106999
	2715	H	15.793930	3.179859	23.535893	H	1	YLD124_chi.LOD1	0.090486
	2716	C	16.514048	1.636464	20.282250	C	1	YLD124_chi.LOD1	-0.470103
	2717	H	16.647331	2.515631	19.639998	H	1	YLD124_chi.LOD1	0.112461
	2718	H	17.484398	1.405426	20.736613	H	1	YLD124_chi.LOD1	0.098066
	2719	H	16.252808	0.795523	19.628778	H	1	YLD124_chi.LOD1	0.083138
	2720	Si	15.187800	1.927300	21.513500	Si	1	YLD124_chi.LOD1	0.770043
	2721	Si	19.314600	-1.005840	22.406700	Si	1	YLD124_chi.LOD1	0.73989
	2722	H	15.255004	1.249091	24.568270	H	1	YLD124_chi.LOD1	-0.017464
	2723	H	16.969665	-2.796706	23.642398	H	1	YLD124_chi.LOD1	0.058354
	2724	H	17.626721	-2.955572	21.365109	H	1	YLD124_chi.LOD1	-0.04034
	2725	H	16.215685	-1.958328	20.963677	H	1	YLD124_chi.LOD1	-0.007901
	2726	H	15.737317	-3.567413	22.665030	H	1	YLD124_chi.LOD1	0.028132
	2727	H	15.055617	-0.779604	25.228409	H	1	YLD124_chi.LOD1	-0.011538
	2728	H	16.694364	-1.062145	24.680588	H	1	YLD124_chi.LOD1	0.020652
	2729	H	16.808389	0.890173	23.796627	H	1	YLD124_chi.LOD1	-0.064856
	2730	C	5.720849	-1.074506	19.297381	C	1	YLD124_chi.LOD1	-0.299384
	2731	H	6.444510	-1.293548	18.503110	H	1	YLD124_chi.LOD1	0.066854
	2732	H	4.754518	-0.873186	18.819748	H	1	YLD124_chi.LOD1	0.072315
	2733	H	6.042819	-0.157600	19.800809	H	1	YLD124_chi.LOD1	0.027971
	2734	C	5.178142	-3.514216	19.486852	C	1	YLD124_chi.LOD1	-0.427943
	2735	H	5.914839	-3.765173	18.714098	H	1	YLD124_chi.LOD1	0.089807
	2736	H	5.071861	-4.385057	20.145255	H	1	YLD124_chi.LOD1	0.091303
	2737	H	4.215630	-3.351745	18.987037	H	1	YLD124_chi.LOD1	0.089757
	2738	C	-0.264389	-1.984781	24.084888	C	1	YLD124_chi.LOD1	-0.158763
	2739	C	-0.390310	-2.431067	21.715568	C	1	YLD124_chi.LOD1	-0.147279
	2740	C	-0.184585	-3.350173	24.343546	C	1	YLD124_chi.LOD1	-0.065518
	2741	H	-0.251254	-1.282997	24.913351	H	1	YLD124_chi.LOD1	0.080042
	2742	C	-0.301058	-3.799860	21.978207	C	1	YLD124_chi.LOD1	-0.090746
	2743	H	-0.485119	-2.103071	20.688683	H	1	YLD124_chi.LOD1	0.09871
	2744	C	-0.198969	-4.264316	23.288108	C	1	YLD124_chi.LOD1	-0.09866
	2745	H	-0.110907	-3.698398	25.369770	H	1	YLD124_chi.LOD1	0.104949
	2746	H	-0.135452	-5.330436	23.487286	H	1	YLD124_chi.LOD1	0.102095
	2747	H	-0.322085	-4.501969	21.149466	H	1	YLD124_chi.LOD1	0.105434
	2748	F	-1.021294	1.663671	20.962420	F	1	YLD124_chi.LOD1	-0.19867
	2749	F	-1.079629	-0.387738	20.263435	F	1	YLD124_chi.LOD1	-0.154403
	2750	F	0.834852	0.571278	20.649582	F	1	YLD124_chi.LOD1	-0.186491
	2751	C	11.690991	-13.714242	-27.713857	C	2	YLD124_chi.LOD1	-0.150166
	2752	C	12.381267	-13.800545	-26.541198	C	2	YLD124_chi.LOD1	-0.190723
	2753	H	13.226034	-13.133104	-26.378075	H	2	YLD124_chi.LOD1	0.123134
	2754	H	10.860398	-14.399936	-27.872892	H	2	YLD124_chi.LOD1	0.111619
	2755	N	12.608410	-10.311046	-32.200622	N	2	YLD124_chi.LOD1	-0.506176
	2756	C	12.371950	-11.108222	-31.093211	C	2	YLD124_chi.LOD1	0.404469
	2757	C	13.157554	-10.996893	-29.914168	C	2	YLD124_chi.LOD1	-0.281203
	2758	C	12.949134	-11.824852	-28.826773	C	2	YLD124_chi.LOD1	-0.112562
	2759	C	11.941555	-12.813830	-28.819487	C	2	YLD124_chi.LOD1	0.131862
	2760	C	11.147481	-12.902188	-29.981332	C	2	YLD124_chi.LOD1	-0.140167
	2761	C	11.342972	-12.083556	-31.080917	C	2	YLD124_chi.LOD1	-0.26473
	2762	H	13.940683	-10.252187	-29.846255	H	2	YLD124_chi.LOD1	0.177954
	2763	H	13.585705	-11.694504	-27.956544	H	2	YLD124_chi.LOD1	0.098859
	2764	H	10.350605	-13.641900	-30.018998	H	2	YLD124_chi.LOD1	0.103807
	2765	H	10.688955	-12.205403	-31.935326	H	2	YLD124_chi.LOD1	0.161189
	2766	C	12.127036	-14.733139	-25.477020	C	2	YLD124_chi.LOD1	0.100982
	2767	C	12.956053	-14.745174	-24.378257	C	2	YLD124_chi.LOD1	-0.303623
	2768	C	10.986268	-15.725246	-25.563509	C	2	YLD124_chi.LOD1	0.096207
	2769	H	13.763435	-14.015992	-24.330220	H	2	YLD124_chi.LOD1	0.124941
	2770	C	10.528300	-16.278037	-24.193615	C	2	YLD124_chi.LOD1	0.409462
	2771	H	10.127098	-15.266676	-26.067574	H	2	YLD124_chi.LOD1	-0.020765
	2772	C	11.775401	-16.734627	-23.400906	C	2	YLD124_chi.LOD1	-0.014279
	2773	H	12.215870	-17.606163	-23.909590	H	2	YLD124_chi.LOD1	-0.02177
	2774	C	12.840956	-15.664621	-23.293368	C	2	YLD124_chi.LOD1	0.179445
	2775	C	13.773131	-15.476880	-22.321360	C	2	YLD124_chi.LOD1	-0.27725
	2776	H	14.509762	-14.675040	-22.369110	H	2	YLD124_chi.LOD1	0.132087
	2777	C	13.830136	-16.322426	-21.190395	C	2	YLD124_chi.LOD1	0.141075
	2778	C	14.761909	-16.167941	-20.184174	C	2	YLD124_chi.LOD1	-0.327608
	2779	H	13.118443	-17.136980	-21.122251	H	2	YLD124_chi.LOD1	-0.027316
	2780	C	14.904336	-16.968395	-19.030011	C	2	YLD124_chi.LOD1	0.260653
	2781	C	15.899610	-16.831394	-18.068917	C	2	YLD124_chi.LOD1	-0.287606
	2782	C	14.024270	-18.141653	-18.590328	C	2	YLD124_chi.LOD1	-0.056548
	2783	C	15.738553	-17.852492	-17.068765	C	2	YLD124_chi.LOD1	0.509074
	2784	C	16.908116	-15.836114	-18.123133	C	2	YLD124_chi.LOD1	0.396907
	2785	O	14.682259	-18.637012	-17.390914	O	2	YLD124_chi.LOD1	-0.366332
	2786	C	13.854328	-19.359885	-19.558831	C	2	YLD124_chi.LOD1	0.253806
	2787	C	12.545423	-17.721164	-18.035774	C	2	YLD124_chi.LOD1	0.598114
	2788	C	16.454190	-18.148089	-15.929539	C	2	YLD124_chi.LOD1	-0.43234
	2789	N	17.696733	-14.989431	-18.256333	N	2	YLD124_chi.LOD1	-0.430249
	2790	C	17.587255	-17.387326	-15.520732	C	2	YLD124_chi.LOD1	0.437474
	2791	C	16.067917	-19.251355	-15.111541	C	2	YLD124_chi.LOD1	0.49223
	2792	N	18.518342	-16.793593	-15.150440	N	2	YLD124_chi.LOD1	-0.451871
	2793	N	15.765115	-20.150013	-14.435701	N	2	YLD124_chi.LOD1	-0.482758
	2794	H	15.486218	-15.360757	-20.278926	H	2	YLD124_chi.LOD1	0.157364
	2795	H	11.465580	-17.082194	-22.409855	H	2	YLD124_chi.LOD1	0.040059
	2796	H	11.299850	-16.563120	-26.205634	H	2	YLD124_chi.LOD1	-0.024244
	2797	C	13.584303	-9.279373	-32.217540	C	2	YLD124_chi.LOD1	0.240322
	2798	C	11.787814	-10.366433	-33.370300	C	2	YLD124_chi.LOD1	0.113854
	2799	C	10.584795	-9.607280	-33.372597	C	2	YLD124_chi.LOD1	0.29958
	2800	C	13.256580	-7.982451	-31.723714	C	2	YLD124_chi.LOD1	0.285774
	2801	O	12.997400	-7.961560	-30.401400	O	2	YLD124_chi.LOD1	-0.61175
	2802	O	10.347800	-9.079430	-32.155700	O	2	YLD124_chi.LOD1	-0.599726
	2803	C	8.269013	-7.155662	-31.857565	C	2	YLD124_chi.LOD1	0.275329
	2804	C	12.886078	-7.279411	-27.508929	C	2	YLD124_chi.LOD1	0.358728
	2805	C	13.779637	-6.808793	-26.339961	C	2	YLD124_chi.LOD1	-0.337707
	2806	H	14.123927	-5.775656	-26.473310	H	2	YLD124_chi.LOD1	0.059176
	2807	H	13.220341	-6.844505	-25.394024	H	2	YLD124_chi.LOD1	0.075606
	2808	H	14.665431	-7.443749	-26.215228	H	2	YLD124_chi.LOD1	0.056098
	2809	C	9.052329	-6.094137	-31.053987	C	2	YLD124_chi.LOD1	-0.311529
	2810	H	8.711304	-5.084628	-31.324821	H	2	YLD124_chi.LOD1	0.071087
	2811	H	8.908389	-6.203893	-29.971823	H	2	YLD124_chi.LOD1	0.058721
	2812	H	10.130198	-6.135153	-31.254480	H	2	YLD124_chi.LOD1	0.056179
	2813	C	12.399161	-8.717487	-27.226958	C	2	YLD124_chi.LOD1	-0.279876
	2814	H	11.775076	-9.101874	-28.042456	H	2	YLD124_chi.LOD1	0.048405
	2815	H	13.234638	-9.414385	-27.090498	H	2	YLD124_chi.LOD1	0.047411
	2816	H	11.797418	-8.745038	-26.306986	H	2	YLD124_chi.LOD1	0.054899
	2817	C	11.657501	-6.348558	-27.602705	C	2	YLD124_chi.LOD1	-0.273001
	2818	H	11.099823	-6.355383	-26.654914	H	2	YLD124_chi.LOD1	0.0526
	2819	H	11.938270	-5.307403	-27.804708	H	2	YLD124_chi.LOD1	0.034813
	2820	H	10.961023	-6.667462	-28.387538	H	2	YLD124_chi.LOD1	0.061699
	2821	C	8.500092	-6.921656	-33.366325	C	2	YLD124_chi.LOD1	-0.202774
	2822	H	9.562051	-6.984256	-33.634518	H	2	YLD124_chi.LOD1	0.027959
	2823	H	7.955990	-7.651895	-33.975608	H	2	YLD124_chi.LOD1	0.030756
	2824	H	8.150261	-5.919755	-33.654291	H	2	YLD124_chi.LOD1	0.045471
	2825	C	6.761916	-7.009746	-31.554174	C	2	YLD124_chi.LOD1	-0.266625
	2826	H	6.545349	-7.130616	-30.485624	H	2	YLD124_chi.LOD1	0.041283
	2827	H	6.409291	-6.010118	-31.846422	H	2	YLD124_chi.LOD1	0.059445
	2828	H	6.166394	-7.747059	-32.103842	H	2	YLD124_chi.LOD1	0.054675
	2829	C	7.711343	-10.209017	-31.924461	C	2	YLD124_chi.LOD1	-0.410828
	2830	H	6.667272	-9.886567	-31.842713	H	2	YLD124_chi.LOD1	0.093855
	2831	H	7.894004	-10.479271	-32.971823	H	2	YLD124_chi.LOD1	0.090546
	2832	H	7.824358	-11.125173	-31.332191	H	2	YLD124_chi.LOD1	0.070213
	2833	C	9.120487	-9.074043	-29.551015	C	2	YLD124_chi.LOD1	-0.460074
	2834	H	8.325027	-9.671263	-29.088636	H	2	YLD124_chi.LOD1	0.099819
	2835	H	10.075825	-9.556913	-29.317169	H	2	YLD124_chi.LOD1	0.10243
	2836	H	9.112737	-8.094259	-29.058398	H	2	YLD124_chi.LOD1	0.086844
	2837	C	15.386355	-8.306655	-29.034432	C	2	YLD124_chi.LOD1	-0.477029
	2838	H	15.154263	-9.295934	-28.625000	H	2	YLD124_chi.LOD1	0.107463
	2839	H	15.826491	-8.455872	-30.027178	H	2	YLD124_chi.LOD1	0.106999
	2840	H	16.152186	-7.850807	-28.395900	H	2	YLD124_chi.LOD1	0.090486
	2841	C	14.353252	-5.551544	-29.610377	C	2	YLD124_chi.LOD1	-0.470103
	2842	H	15.426845	-5.482776	-29.824514	H	2	YLD124_chi.LOD1	0.112461
	2843	H	13.813693	-5.177021	-30.487881	H	2	YLD124_chi.LOD1	0.098066
	2844	H	14.144182	-4.863653	-28.782399	H	2	YLD124_chi.LOD1	0.083138
	2845	Si	13.891400	-7.265070	-29.152100	Si	2	YLD124_chi.LOD1	0.770043
	2846	Si	8.870690	-8.907210	-31.359200	Si	2	YLD124_chi.LOD1	0.73989
	2847	H	14.047346	-7.255158	-31.958528	H	2	YLD124_chi.LOD1	-0.017464
	2848	H	12.395502	-10.059850	-34.226413	H	2	YLD124_chi.LOD1	0.058354
	2849	H	10.662923	-8.798886	-34.113570	H	2	YLD124_chi.LOD1	-0.04034
	2850	H	9.738384	-10.245581	-33.667514	H	2	YLD124_chi.LOD1	-0.007901
	2851	H	11.527138	-11.416598	-33.538591	H	2	YLD124_chi.LOD1	0.028132
	2852	H	14.414518	-9.610923	-31.585628	H	2	YLD124_chi.LOD1	-0.011538
	2853	H	13.983771	-9.202723	-33.232825	H	2	YLD124_chi.LOD1	0.020652
	2854	H	12.356490	-7.677059	-32.275174	H	2	YLD124_chi.LOD1	-0.064856
	2855	C	9.801063	-15.162447	-23.461104	C	2	YLD124_chi.LOD1	-0.299384
	2856	H	8.900439	-14.855433	-24.006217	H	2	YLD124_chi.LOD1	0.066854
	2857	H	9.483170	-15.546659	-22.484485	H	2	YLD124_chi.LOD1	0.072315
	2858	H	10.408862	-14.268982	-23.287544	H	2	YLD124_chi.LOD1	0.027971
	2859	C	9.642408	-17.450759	-24.471585	C	2	YLD124_chi.LOD1	-0.427943
	2860	H	8.755926	-17.162899	-25.049632	H	2	YLD124_chi.LOD1	0.089807
	2861	H	10.153400	-18.253359	-25.017363	H	2	YLD124_chi.LOD1	0.091303
	2862	H	9.295837	-17.862363	-23.516017	H	2	YLD124_chi.LOD1	0.089757
	2863	C	15.050007	-19.765916	-20.170462	C	2	YLD124_chi.LOD1	-0.158763
	2864	C	12.671782	-20.046098	-19.863458	C	2	YLD124_chi.LOD1	-0.147279
	2865	C	15.064627	-20.827761	-21.070373	C	2	YLD124_chi.LOD1	-0.065518
	2866	H	15.976784	-19.249575	-19.939161	H	2	YLD124_chi.LOD1	0.080042
	2867	C	12.688596	-21.105289	-20.773607	C	2	YLD124_chi.LOD1	-0.090746
	2868	H	11.733281	-19.774186	-19.398331	H	2	YLD124_chi.LOD1	0.09871
	2869	C	13.880290	-21.500243	-21.378472	C	2	YLD124_chi.LOD1	-0.09866
	2870	H	16.001621	-21.128416	-21.530236	H	2	YLD124_chi.LOD1	0.104949
	2871	H	13.888835	-22.328451	-22.081548	H	2	YLD124_chi.LOD1	0.102095
	2872	H	11.762438	-21.626575	-20.998775	H	2	YLD124_chi.LOD1	0.105434
	2873	F	12.670068	-17.234247	-16.791806	F	2	YLD124_chi.LOD1	-0.19867
	2874	F	11.630438	-18.703303	-18.000651	F	2	YLD124_chi.LOD1	-0.154403
	2875	F	12.057762	-16.733186	-18.819240	F	2	YLD124_chi.LOD1	-0.186491
	2876	C	19.118571	5.912273	-17.113182	C	1	YLD124.LOD1	-0.158041
	2877	C	20.055668	6.011656	-18.098597	C	1	YLD124.LOD1	-0.174247
	2878	H	21.062570	6.331132	-17.834433	H	1	YLD124.LOD1	0.11023
	2879	H	18.111121	5.605739	-17.389667	H	1	YLD124.LOD1	0.116594
	2880	N	19.651962	6.914539	-11.520508	N	1	YLD124.LOD1	-0.477879
	2881	C	19.536783	6.658137	-12.876435	C	1	YLD124.LOD1	0.383639
	2882	C	20.640976	6.808279	-13.758532	C	1	YLD124.LOD1	-0.278193
	2883	C	20.517038	6.579157	-15.116209	C	1	YLD124.LOD1	-0.102205
	2884	C	19.296778	6.175876	-15.700746	C	1	YLD124.LOD1	0.126725
	2885	C	18.206796	6.018579	-14.820102	C	1	YLD124.LOD1	-0.148338
	2886	C	18.311822	6.243627	-13.457722	C	1	YLD124.LOD1	-0.248652
	2887	H	21.609630	7.106917	-13.377734	H	1	YLD124.LOD1	0.176041
	2888	H	21.396743	6.713961	-15.738609	H	1	YLD124.LOD1	0.098595
	2889	H	17.246255	5.703906	-15.222530	H	1	YLD124.LOD1	0.105176
	2890	H	17.433885	6.091391	-12.842366	H	1	YLD124.LOD1	0.157607
	2891	C	19.849765	5.746918	-19.496444	C	1	YLD124.LOD1	0.13089
	2892	C	20.891866	5.930542	-20.376933	C	1	YLD124.LOD1	-0.298955
	2893	C	18.503037	5.291064	-20.017904	C	1	YLD124.LOD1	0.000678
	2894	H	21.855032	6.248392	-19.980475	H	1	YLD124.LOD1	0.128536
	2895	C	18.573042	4.545627	-21.371415	C	1	YLD124.LOD1	0.312314
	2896	H	18.012779	4.644332	-19.280574	H	1	YLD124.LOD1	0.009572
	2897	C	19.441020	5.372498	-22.348700	C	1	YLD124.LOD1	0.132423
	2898	H	18.912302	6.310005	-22.580998	H	1	YLD124.LOD1	-0.011706
	2899	C	20.800784	5.727971	-21.786254	C	1	YLD124.LOD1	0.094029
	2900	C	21.975159	5.931765	-22.442883	C	1	YLD124.LOD1	-0.194272
	2901	H	22.889918	6.214939	-21.922414	H	1	YLD124.LOD1	0.118653
	2902	C	22.065619	5.777404	-23.844634	C	1	YLD124.LOD1	0.029031
	2903	C	23.243417	5.940994	-24.544982	C	1	YLD124.LOD1	-0.298661
	2904	H	21.168166	5.508047	-24.389138	H	1	YLD124.LOD1	0.063317
	2905	C	23.433264	5.767142	-25.933055	C	1	YLD124.LOD1	0.24754
	2906	C	24.650129	5.849485	-26.600672	C	1	YLD124.LOD1	-0.281071
	2907	C	22.373144	5.437360	-26.987698	C	1	YLD124.LOD1	-0.098074
	2908	C	24.448541	5.554149	-27.993840	C	1	YLD124.LOD1	0.526995
	2909	C	25.876824	6.152798	-25.957478	C	1	YLD124.LOD1	0.389724
	2910	O	23.142452	5.263461	-28.208985	O	1	YLD124.LOD1	-0.351072
	2911	C	21.378035	6.668828	-27.366624	C	1	YLD124.LOD1	0.617997
	2912	C	21.504660	4.150354	-26.801332	C	1	YLD124.LOD1	0.253109
	2913	C	25.318458	5.499955	-29.060316	C	1	YLD124.LOD1	-0.451385
	2914	N	26.833191	6.403661	-25.341875	N	1	YLD124.LOD1	-0.428829
	2915	F	22.150765	7.742761	-27.588736	F	1	YLD124.LOD1	-0.200469
	2916	F	20.609808	6.483714	-28.451888	F	1	YLD124.LOD1	-0.158364
	2917	F	20.561719	6.955950	-26.328227	F	1	YLD124.LOD1	-0.193377
	2918	C	21.461097	3.702478	-25.472584	C	1	YLD124.LOD1	-0.158716
	2919	C	20.876150	3.387940	-27.793999	C	1	YLD124.LOD1	-0.162688
	2920	C	26.709806	5.775024	-28.925192	C	1	YLD124.LOD1	0.447489
	2921	C	24.834513	5.158309	-30.358253	C	1	YLD124.LOD1	0.491336
	2922	H	21.950552	4.278604	-24.693015	H	1	YLD124.LOD1	0.085247
	2923	C	20.798859	2.524345	-25.139864	C	1	YLD124.LOD1	-0.074329
	2924	C	20.204234	2.210865	-27.455149	C	1	YLD124.LOD1	-0.055824
	2925	H	20.904238	3.691198	-28.832484	H	1	YLD124.LOD1	0.099228
	2926	N	27.852327	5.991549	-28.859546	N	1	YLD124.LOD1	-0.454587
	2927	N	24.453716	4.878516	-31.422554	N	1	YLD124.LOD1	-0.481156
	2928	H	20.779694	2.193108	-24.105610	H	1	YLD124.LOD1	0.111202
	2929	C	20.162724	1.775099	-26.132045	C	1	YLD124.LOD1	-0.106678
	2930	H	19.723017	1.630258	-28.237215	H	1	YLD124.LOD1	0.095951
	2931	H	19.644032	0.855817	-25.874710	H	1	YLD124.LOD1	0.103827
	2932	H	24.139480	6.201712	-23.984396	H	1	YLD124.LOD1	0.159396
	2933	H	19.534087	4.830106	-23.295223	H	1	YLD124.LOD1	-0.052081
	2934	H	17.852647	6.173127	-20.124837	H	1	YLD124.LOD1	-0.003289
	2935	C	20.892965	7.236281	-10.914013	C	1	YLD124.LOD1	0.198954
	2936	C	18.591197	6.734020	-10.580044	C	1	YLD124.LOD1	0.115128
	2937	C	18.595104	5.687061	-9.604145	C	1	YLD124.LOD1	0.306486
	2938	C	21.784980	6.162900	-10.633268	C	1	YLD124.LOD1	0.28632
	2939	O	21.400000	5.038140	-11.266800	O	1	YLD124.LOD1	-0.606883
	2940	O	17.931700	4.569510	-9.959080	O	1	YLD124.LOD1	-0.600198
	2941	C	15.784935	3.220327	-11.221514	C	1	YLD124.LOD1	0.267162
	2942	C	23.241715	3.079890	-12.543592	C	1	YLD124.LOD1	0.369124
	2943	C	23.766408	1.632699	-12.410890	C	1	YLD124.LOD1	-0.324271
	2944	H	22.968033	0.890078	-12.533003	H	1	YLD124.LOD1	0.053925
	2945	H	24.519558	1.428810	-13.185553	H	1	YLD124.LOD1	0.070181
	2946	H	24.244762	1.453829	-11.440319	H	1	YLD124.LOD1	0.052098
	2947	C	14.281043	2.878385	-11.133059	C	1	YLD124.LOD1	-0.316887
	2948	H	13.981985	2.258806	-11.990594	H	1	YLD124.LOD1	0.07213
	2949	H	14.037692	2.312842	-10.224930	H	1	YLD124.LOD1	0.059956
	2950	H	13.650951	3.776399	-11.147661	H	1	YLD124.LOD1	0.057948
	2951	C	24.424683	4.061132	-12.395858	C	1	YLD124.LOD1	-0.260833
	2952	H	24.098621	5.105036	-12.473427	H	1	YLD124.LOD1	0.041714
	2953	H	24.935574	3.943714	-11.432822	H	1	YLD124.LOD1	0.041636
	2954	H	25.170497	3.885822	-13.184719	H	1	YLD124.LOD1	0.048242
	2955	C	22.620124	3.255585	-13.946116	C	1	YLD124.LOD1	-0.256632
	2956	H	23.363894	3.031905	-14.724681	H	1	YLD124.LOD1	0.046696
	2957	H	21.768314	2.584189	-14.110381	H	1	YLD124.LOD1	0.030906
	2958	H	22.276148	4.282989	-14.116139	H	1	YLD124.LOD1	0.051975
	2959	C	16.052893	3.986707	-12.535134	C	1	YLD124.LOD1	-0.203727
	2960	H	15.467543	4.912530	-12.595618	H	1	YLD124.LOD1	0.027457
	2961	H	17.110986	4.250950	-12.640291	H	1	YLD124.LOD1	0.031775
	2962	H	15.774593	3.368378	-13.400664	H	1	YLD124.LOD1	0.046776
	2963	C	16.601875	1.909851	-11.230003	C	1	YLD124.LOD1	-0.249027
	2964	H	16.419768	1.308045	-10.331023	H	1	YLD124.LOD1	0.037596
	2965	H	16.323684	1.292667	-12.096438	H	1	YLD124.LOD1	0.055765
	2966	H	17.678221	2.105196	-11.291121	H	1	YLD124.LOD1	0.04836
	2967	C	16.029784	3.432782	-8.120853	C	1	YLD124.LOD1	-0.409962
	2968	H	16.551412	2.469464	-8.094723	H	1	YLD124.LOD1	0.090944
	2969	H	16.394118	4.031297	-7.276893	H	1	YLD124.LOD1	0.090896
	2970	H	14.964977	3.239996	-7.941787	H	1	YLD124.LOD1	0.069902
	2971	C	15.393081	5.899380	-9.675668	C	1	YLD124.LOD1	-0.458602
	2972	H	15.731881	6.525699	-8.841311	H	1	YLD124.LOD1	0.097974
	2973	H	15.541177	6.468646	-10.600159	H	1	YLD124.LOD1	0.103309
	2974	H	14.314448	5.747788	-9.546752	H	1	YLD124.LOD1	0.085827
	2975	C	22.703439	3.352855	-9.497735	C	1	YLD124.LOD1	-0.493974
	2976	H	23.480212	4.113871	-9.364758	H	1	YLD124.LOD1	0.11158
	2977	H	21.941405	3.521633	-8.728154	H	1	YLD124.LOD1	0.113577
	2978	H	23.156973	2.373078	-9.308154	H	1	YLD124.LOD1	0.09477
	2979	C	20.534283	2.292706	-11.277814	C	1	YLD124.LOD1	-0.483575
	2980	H	19.791153	2.514318	-10.502129	H	1	YLD124.LOD1	0.116965
	2981	H	20.025377	2.334202	-12.247496	H	1	YLD124.LOD1	0.100121
	2982	H	20.862208	1.257381	-11.126057	H	1	YLD124.LOD1	0.088084
	2983	Si	21.953300	3.448410	-11.158300	Si	1	YLD124.LOD1	0.763339
	2984	Si	16.284100	4.298300	-9.716060	Si	1	YLD124.LOD1	0.748472
	2985	H	22.809440	6.425289	-10.935683	H	1	YLD124.LOD1	-0.009815
	2986	H	18.430719	7.689928	-10.073422	H	1	YLD124.LOD1	0.057511
	2987	H	19.660028	5.455189	-9.458970	H	1	YLD124.LOD1	-0.045737
	2988	H	18.203403	6.055953	-8.644295	H	1	YLD124.LOD1	-0.011652
	2989	H	17.681800	6.534614	-11.156556	H	1	YLD124.LOD1	0.023801
	2990	H	21.412917	7.932703	-11.580346	H	1	YLD124.LOD1	-0.001966
	2991	H	20.691133	7.787578	-9.991527	H	1	YLD124.LOD1	0.031172
	2992	H	21.797708	5.989348	-9.548340	H	1	YLD124.LOD1	-0.066029
	2993	C	19.197503	3.177344	-21.120935	C	1	YLD124.LOD1	-0.185058
	2994	H	18.570312	2.576167	-20.451754	H	1	YLD124.LOD1	0.04722
	2995	H	19.261404	2.650125	-22.080327	H	1	YLD124.LOD1	0.027573
	2996	H	20.203953	3.216202	-20.692772	H	1	YLD124.LOD1	0.00699
	2997	C	17.175824	4.444949	-21.889333	C	1	YLD124.LOD1	-0.347891
	2998	H	16.528386	3.879313	-21.208266	H	1	YLD124.LOD1	0.075067
	2999	H	16.712495	5.424968	-22.056783	H	1	YLD124.LOD1	0.071859
	3000	H	17.193348	3.913431	-22.848452	H	1	YLD124.LOD1	0.077505
	3001	C	-23.801888	1.051592	-21.667187	C	2	YLD124.LOD1	-0.158041
	3002	C	-23.914575	2.384186	-21.932830	C	2	YLD124.LOD1	-0.174247
	3003	H	-24.309859	2.694763	-22.898745	H	2	YLD124.LOD1	0.11023
	3004	H	-23.392296	0.751344	-20.704146	H	2	YLD124.LOD1	0.116594
	3005	N	-25.174873	-3.405814	-24.955574	N	2	YLD124.LOD1	-0.477879
	3006	C	-24.860052	-2.317826	-24.158883	C	2	YLD124.LOD1	0.383639
	3007	C	-25.059735	-0.984241	-24.607837	C	2	YLD124.LOD1	-0.278193
	3008	C	-24.718590	0.100931	-23.822238	C	2	YLD124.LOD1	-0.102205
	3009	C	-24.164489	-0.051059	-22.532577	C	2	YLD124.LOD1	0.126725
	3010	C	-23.977623	-1.375995	-22.087648	C	2	YLD124.LOD1	-0.148338
	3011	C	-24.313061	-2.475187	-22.860315	C	2	YLD124.LOD1	-0.248652
	3012	H	-25.488564	-0.793159	-25.583581	H	2	YLD124.LOD1	0.176041
	3013	H	-24.892593	1.095307	-24.222706	H	2	YLD124.LOD1	0.098595
	3014	H	-23.558404	-1.544612	-21.097987	H	2	YLD124.LOD1	0.105176
	3015	H	-24.151078	-3.462851	-22.446921	H	2	YLD124.LOD1	0.157607
	3016	C	-23.542454	3.459820	-21.054766	C	2	YLD124.LOD1	0.13089
	3017	C	-23.682866	4.759671	-21.485609	C	2	YLD124.LOD1	-0.298955
	3018	C	-22.980083	3.186913	-19.675396	C	2	YLD124.LOD1	0.000678
	3019	H	-24.099115	4.934780	-22.476552	H	2	YLD124.LOD1	0.128536
	3020	C	-23.143079	4.364836	-18.686204	C	2	YLD124.LOD1	0.312314
	3021	H	-23.450873	2.294399	-19.246390	H	2	YLD124.LOD1	0.009572
	3022	C	-22.662201	5.662558	-19.376754	C	2	YLD124.LOD1	0.132423
	3023	H	-21.575501	5.591887	-19.539588	H	2	YLD124.LOD1	-0.011706
	3024	C	-23.322318	5.906354	-20.717080	C	2	YLD124.LOD1	0.094029
	3025	C	-23.593931	7.086013	-21.338629	C	2	YLD124.LOD1	-0.194272
	3026	H	-24.051208	7.129837	-22.326980	H	2	YLD124.LOD1	0.118653
	3027	C	-23.298621	8.322613	-20.721760	C	2	YLD124.LOD1	0.029031
	3028	C	-23.588522	9.540804	-21.301782	C	2	YLD124.LOD1	-0.298661
	3029	H	-22.832301	8.308497	-19.743595	H	2	YLD124.LOD1	0.063317
	3030	C	-23.367287	10.817992	-20.742444	C	2	YLD124.LOD1	0.24754
	3031	C	-23.751821	12.028042	-21.309161	C	2	YLD124.LOD1	-0.281071
	3032	C	-22.689313	11.150673	-19.410320	C	2	YLD124.LOD1	-0.098074
	3033	C	-23.407103	13.101623	-20.416205	C	2	YLD124.LOD1	0.526995
	3034	C	-24.405574	12.132428	-22.563030	C	2	YLD124.LOD1	0.389724
	3035	O	-22.841574	12.591903	-19.295037	O	2	YLD124.LOD1	-0.351072
	3036	C	-21.072256	10.961957	-19.399103	C	2	YLD124.LOD1	0.617997
	3037	C	-23.261570	10.519322	-18.099190	C	2	YLD124.LOD1	0.253109
	3038	C	-23.573953	14.465832	-20.506525	C	2	YLD124.LOD1	-0.451385
	3039	N	-24.941957	12.117017	-23.596758	N	2	YLD124.LOD1	-0.428829
	3040	F	-20.599150	11.570856	-20.496914	F	2	YLD124.LOD1	-0.200469
	3041	F	-20.433484	11.476338	-18.336266	F	2	YLD124.LOD1	-0.158364
	3042	F	-20.746817	9.652600	-19.481281	F	2	YLD124.LOD1	-0.193377
	3043	C	-24.215951	9.521766	-18.348388	C	2	YLD124.LOD1	-0.158716
	3044	C	-22.987854	10.878758	-16.773455	C	2	YLD124.LOD1	-0.162688
	3045	C	-24.171847	15.088323	-21.640016	C	2	YLD124.LOD1	0.447489
	3046	C	-23.141153	15.309014	-19.440086	C	2	YLD124.LOD1	0.491336
	3047	H	-24.444767	9.237851	-19.371252	H	2	YLD124.LOD1	0.085247
	3048	C	-24.877242	8.891115	-17.298517	C	2	YLD124.LOD1	-0.074329
	3049	C	-23.646554	10.237053	-15.721731	C	2	YLD124.LOD1	-0.055824
	3050	H	-22.271928	11.656727	-16.542324	H	2	YLD124.LOD1	0.099228
	3051	N	-24.655007	15.637868	-22.546162	N	2	YLD124.LOD1	-0.454587
	3052	N	-22.794796	16.008882	-18.576229	N	2	YLD124.LOD1	-0.481156
	3053	H	-25.615303	8.123601	-17.512883	H	2	YLD124.LOD1	0.111202
	3054	C	-24.590627	9.244475	-15.978119	C	2	YLD124.LOD1	-0.106678
	3055	H	-23.423821	10.528525	-14.699119	H	2	YLD124.LOD1	0.095951
	3056	H	-25.104501	8.752788	-15.156827	H	2	YLD124.LOD1	0.103827
	3057	H	-24.066025	9.540426	-22.280122	H	2	YLD124.LOD1	0.159396
	3058	H	-22.816609	6.509317	-18.700061	H	2	YLD124.LOD1	-0.052081
	3059	H	-21.910545	2.944914	-19.775407	H	2	YLD124.LOD1	-0.003289
	3060	C	-25.810554	-3.265069	-26.215640	C	2	YLD124.LOD1	0.198954
	3061	C	-25.035540	-4.753330	-24.503713	C	2	YLD124.LOD1	0.115128
	3062	C	-26.062925	-5.391047	-23.740018	C	2	YLD124.LOD1	0.306486
	3063	C	-27.225299	-3.108591	-26.222424	C	2	YLD124.LOD1	0.28632
	3064	O	-27.721500	-3.180220	-24.972100	O	2	YLD124.LOD1	-0.606883
	3065	O	-26.003900	-5.154000	-22.415100	O	2	YLD124.LOD1	-0.600198
	3066	C	-25.331333	-5.092127	-19.664346	C	2	YLD124.LOD1	0.267162
	3067	C	-29.832668	-3.468765	-22.894476	C	2	YLD124.LOD1	0.369124
	3068	C	-30.987396	-2.700497	-22.213563	C	2	YLD124.LOD1	-0.324271
	3069	H	-31.784967	-2.440109	-22.920584	H	2	YLD124.LOD1	0.053925
	3070	H	-31.442093	-3.317788	-21.425458	H	2	YLD124.LOD1	0.070181
	3071	H	-30.643905	-1.773051	-21.739558	H	2	YLD124.LOD1	0.052098
	3072	C	-24.616575	-5.846500	-18.521331	C	2	YLD124.LOD1	-0.316887
	3073	H	-24.700115	-5.280073	-17.582789	H	2	YLD124.LOD1	0.07213
	3074	H	-25.053922	-6.836543	-18.341612	H	2	YLD124.LOD1	0.059956
	3075	H	-23.546737	-5.984001	-18.721829	H	2	YLD124.LOD1	0.057948
	3076	C	-28.771057	-3.829068	-21.832761	C	2	YLD124.LOD1	-0.260833
	3077	H	-27.923977	-4.368857	-22.272251	H	2	YLD124.LOD1	0.041714
	3078	H	-28.373396	-2.937714	-21.333171	H	2	YLD124.LOD1	0.041636
	3079	H	-29.207968	-4.471894	-21.054842	H	2	YLD124.LOD1	0.048242
	3080	C	-30.394238	-4.773049	-23.500941	C	2	YLD124.LOD1	-0.256632
	3081	H	-30.869185	-5.384362	-22.719844	H	2	YLD124.LOD1	0.046696
	3082	H	-31.154465	-4.581153	-24.268121	H	2	YLD124.LOD1	0.030906
	3083	H	-29.606359	-5.386611	-23.954345	H	2	YLD124.LOD1	0.051975
	3084	C	-24.681530	-3.701871	-19.836622	C	2	YLD124.LOD1	-0.203727
	3085	H	-23.611344	-3.775824	-20.066134	H	2	YLD124.LOD1	0.027457
	3086	H	-25.158468	-3.129541	-20.639997	H	2	YLD124.LOD1	0.031775
	3087	H	-24.776099	-3.119383	-18.908888	H	2	YLD124.LOD1	0.046776
	3088	C	-26.819551	-4.907758	-19.295526	C	2	YLD124.LOD1	-0.249027
	3089	H	-27.321512	-5.868464	-19.126480	H	2	YLD124.LOD1	0.037596
	3090	H	-26.913172	-4.324266	-18.368279	H	2	YLD124.LOD1	0.055765
	3091	H	-27.367592	-4.376083	-20.081267	H	2	YLD124.LOD1	0.04836
	3092	C	-25.962888	-7.748814	-21.168562	C	2	YLD124.LOD1	-0.409962
	3093	H	-27.011876	-7.675504	-20.860323	H	2	YLD124.LOD1	0.090944
	3094	H	-25.934614	-8.278303	-22.128806	H	2	YLD124.LOD1	0.090896
	3095	H	-25.444350	-8.381314	-20.437737	H	2	YLD124.LOD1	0.069902
	3096	C	-23.432739	-6.305928	-21.819012	C	2	YLD124.LOD1	-0.458602
	3097	H	-23.365553	-6.833985	-22.778102	H	2	YLD124.LOD1	0.097974
	3098	H	-22.927152	-5.340708	-21.934834	H	2	YLD124.LOD1	0.103309
	3099	H	-22.864976	-6.893939	-21.087618	H	2	YLD124.LOD1	0.085827
	3100	C	-28.244235	-0.876672	-23.526658	C	2	YLD124.LOD1	-0.493974
	3101	H	-27.427828	-1.135212	-22.843399	H	2	YLD124.LOD1	0.11158
	3102	H	-27.823756	-0.247397	-24.319531	H	2	YLD124.LOD1	0.113577
	3103	H	-28.969143	-0.271315	-22.970197	H	2	YLD124.LOD1	0.09477
	3104	C	-30.237664	-1.895025	-25.523408	C	2	YLD124.LOD1	-0.483575
	3105	H	-29.765796	-1.285332	-26.303574	H	2	YLD124.LOD1	0.116965
	3106	H	-30.704995	-2.757306	-26.012352	H	2	YLD124.LOD1	0.100121
	3107	H	-31.042712	-1.293480	-25.084658	H	2	YLD124.LOD1	0.088084
	3108	Si	-29.009700	-2.368570	-24.246200	Si	2	YLD124.LOD1	0.763339
	3109	Si	-25.175000	-6.098650	-21.289200	Si	2	YLD124.LOD1	0.748472
	3110	H	-27.486257	-2.137692	-26.668604	H	2	YLD124.LOD1	-0.009815
	3111	H	-24.787701	-5.376649	-25.367559	H	2	YLD124.LOD1	0.057511
	3112	H	-27.001506	-4.988013	-24.146875	H	2	YLD124.LOD1	-0.045737
	3113	H	-26.065055	-6.476960	-23.917818	H	2	YLD124.LOD1	-0.011652
	3114	H	-24.165384	-4.787227	-23.839777	H	2	YLD124.LOD1	0.023801
	3115	H	-25.361929	-2.398978	-26.713611	H	2	YLD124.LOD1	-0.001966
	3116	H	-25.556625	-4.135548	-26.826730	H	2	YLD124.LOD1	0.031172
	3117	H	-27.682248	-3.889398	-26.846033	H	2	YLD124.LOD1	-0.066029
	3118	C	-24.618969	4.465493	-18.316737	C	2	YLD124.LOD1	-0.185058
	3119	H	-24.957044	3.559155	-17.800170	H	2	YLD124.LOD1	0.04722
	3120	H	-24.741457	5.307974	-17.625579	H	2	YLD124.LOD1	0.027573
	3121	H	-25.283583	4.633246	-19.169921	H	2	YLD124.LOD1	0.00699
	3122	C	-22.281575	4.066387	-17.503258	C	2	YLD124.LOD1	-0.347891
	3123	H	-22.585184	3.139685	-17.001243	H	2	YLD124.LOD1	0.075067
	3124	H	-21.219613	3.975627	-17.762390	H	2	YLD124.LOD1	0.071859
	3125	H	-22.381977	4.884117	-16.779404	H	2	YLD124.LOD1	0.077505
	3126	C	-17.882493	25.772436	-21.202621	C	3	YLD124.LOD1	-0.158041
	3127	C	-18.392021	26.676658	-20.318408	C	3	YLD124.LOD1	-0.174247
	3128	H	-19.138645	26.343420	-19.599238	H	3	YLD124.LOD1	0.11023
	3129	H	-17.147035	26.118667	-21.926906	H	3	YLD124.LOD1	0.116594
	3130	N	-19.060012	20.215731	-21.753556	N	3	YLD124.LOD1	-0.477879
	3131	C	-18.769073	21.560998	-21.601379	C	3	YLD124.LOD1	0.383639
	3132	C	-19.400946	22.350628	-20.602829	C	3	YLD124.LOD1	-0.278193
	3133	C	-19.130245	23.699845	-20.470620	C	3	YLD124.LOD1	-0.102205
	3134	C	-18.209090	24.365864	-21.308025	C	3	YLD124.LOD1	0.126725
	3135	C	-17.577344	23.576066	-22.290599	C	3	YLD124.LOD1	-0.148338
	3136	C	-17.835808	22.223596	-22.438171	C	3	YLD124.LOD1	-0.248652
	3137	H	-20.112428	21.903575	-19.919880	H	3	YLD124.LOD1	0.176041
	3138	H	-19.647768	24.249800	-19.690137	H	3	YLD124.LOD1	0.098595
	3139	H	-16.855151	24.043081	-22.956887	H	3	YLD124.LOD1	0.105176
	3140	H	-17.303539	21.679568	-23.208455	H	3	YLD124.LOD1	0.157607
	3141	C	-18.051857	28.071061	-20.238481	C	3	YLD124.LOD1	0.13089
	3142	C	-18.685117	28.866260	-19.310260	C	3	YLD124.LOD1	-0.298955
	3143	C	-17.026586	28.682517	-21.170329	C	3	YLD124.LOD1	0.000678
	3144	H	-19.411290	28.405124	-18.642487	H	3	YLD124.LOD1	0.128536
	3145	C	-16.385494	29.983329	-20.632313	C	3	YLD124.LOD1	0.312314
	3146	H	-16.232830	27.957227	-21.385214	H	3	YLD124.LOD1	0.009572
	3147	C	-17.510382	30.924104	-20.140627	C	3	YLD124.LOD1	0.132423
	3148	H	-18.100472	31.250893	-21.010931	H	3	YLD124.LOD1	-0.011706
	3149	C	-18.452663	30.265410	-19.155795	C	3	YLD124.LOD1	0.094029
	3150	C	-19.165970	30.827433	-18.142370	C	3	YLD124.LOD1	-0.194272
	3151	H	-19.840105	30.245294	-17.514264	H	3	YLD124.LOD1	0.118653
	3152	C	-19.059473	32.205853	-17.849909	C	3	YLD124.LOD1	0.029031
	3153	C	-19.738338	32.809004	-16.810771	C	3	YLD124.LOD1	-0.298661
	3154	H	-18.405358	32.811133	-18.466536	H	3	YLD124.LOD1	0.063317
	3155	C	-19.660068	34.164154	-16.422883	C	3	YLD124.LOD1	0.24754
	3156	C	-20.284801	34.727037	-15.315578	C	3	YLD124.LOD1	-0.281071
	3157	C	-18.873962	35.287836	-17.104246	C	3	YLD124.LOD1	-0.098074
	3158	C	-19.919433	36.114784	-15.218408	C	3	YLD124.LOD1	0.526995
	3159	C	-21.120444	33.996800	-14.433007	C	3	YLD124.LOD1	0.389724
	3160	O	-19.061942	36.426758	-16.220425	O	3	YLD124.LOD1	-0.351072
	3161	C	-19.511082	35.816665	-18.505982	C	3	YLD124.LOD1	0.617997
	3162	C	-17.333756	35.109620	-17.306951	C	3	YLD124.LOD1	0.253109
	3163	C	-20.261047	37.097322	-14.315645	C	3	YLD124.LOD1	-0.451385
	3164	N	-21.785597	33.314692	-13.763053	N	3	YLD124.LOD1	-0.428829
	3165	F	-20.817816	36.027581	-18.287489	F	3	YLD124.LOD1	-0.200469
	3166	F	-18.986894	36.953157	-18.991630	F	3	YLD124.LOD1	-0.158364
	3167	F	-19.400894	34.869780	-19.464286	F	3	YLD124.LOD1	-0.193377
	3168	C	-16.913466	33.778977	-17.162699	C	3	YLD124.LOD1	-0.158716
	3169	C	-16.371512	36.104221	-17.522688	C	3	YLD124.LOD1	-0.162688
	3170	C	-21.143038	36.856722	-13.222954	C	3	YLD124.LOD1	0.447489
	3171	C	-19.726076	38.412386	-14.456994	C	3	YLD124.LOD1	0.491336
	3172	H	-17.647028	32.997808	-16.986981	H	3	YLD124.LOD1	0.085247
	3173	C	-15.564123	33.446373	-17.239544	C	3	YLD124.LOD1	-0.074329
	3174	C	-15.018842	35.765587	-17.608748	C	3	YLD124.LOD1	-0.055824
	3175	H	-16.655396	37.143994	-17.620093	H	3	YLD124.LOD1	0.099228
	3176	N	-21.858636	36.703732	-12.316831	N	3	YLD124.LOD1	-0.454587
	3177	N	-19.295052	39.489357	-14.558869	N	3	YLD124.LOD1	-0.481156
	3178	H	-15.259085	32.410595	-17.121721	H	3	YLD124.LOD1	0.111202
	3179	C	-14.610319	34.440633	-17.467947	C	3	YLD124.LOD1	-0.106678
	3180	H	-14.284902	36.549150	-17.775069	H	3	YLD124.LOD1	0.095951
	3181	H	-13.556577	34.183408	-17.529636	H	3	YLD124.LOD1	0.103827
	3182	H	-20.384256	32.187387	-16.193081	H	3	YLD124.LOD1	0.159396
	3183	H	-17.063473	31.828823	-19.715761	H	3	YLD124.LOD1	-0.052081
	3184	H	-17.512669	28.892211	-22.135848	H	3	YLD124.LOD1	-0.003289
	3185	C	-19.917609	19.519146	-20.864106	C	3	YLD124.LOD1	0.198954
	3186	C	-18.408663	19.374766	-22.707199	C	3	YLD124.LOD1	0.115128
	3187	C	-17.353761	18.525742	-22.263149	C	3	YLD124.LOD1	0.306486
	3188	C	-19.417236	19.101204	-19.595163	C	3	YLD124.LOD1	0.28632
	3189	O	-18.964800	20.126700	-18.848100	O	3	YLD124.LOD1	-0.606883
	3190	O	-16.698600	19.063400	-21.216000	O	3	YLD124.LOD1	-0.600198
	3191	C	-14.812830	20.111928	-19.380944	C	3	YLD124.LOD1	0.267162
	3192	C	-19.052729	19.311116	-15.987355	C	3	YLD124.LOD1	0.369124
	3193	C	-19.473759	19.812969	-14.588015	C	3	YLD124.LOD1	-0.324271
	3194	H	-20.553836	19.993839	-14.520774	H	3	YLD124.LOD1	0.053925
	3195	H	-19.222775	19.063321	-13.823853	H	3	YLD124.LOD1	0.070181
	3196	H	-18.960617	20.741607	-14.310276	H	3	YLD124.LOD1	0.052098
	3197	C	-13.393390	20.701691	-19.226639	C	3	YLD124.LOD1	-0.316887
	3198	H	-13.195791	20.943521	-18.172527	H	3	YLD124.LOD1	0.07213
	3199	H	-12.615427	19.998123	-19.548387	H	3	YLD124.LOD1	0.059956
	3200	H	-13.265599	21.628095	-19.800315	H	3	YLD124.LOD1	0.057948
	3201	C	-17.531502	19.046693	-15.992044	C	3	YLD124.LOD1	-0.260833
	3202	H	-17.183072	18.696833	-16.970953	H	3	YLD124.LOD1	0.041714
	3203	H	-16.959173	19.946870	-15.738357	H	3	YLD124.LOD1	0.041636
	3204	H	-17.272927	18.275835	-15.251645	H	3	YLD124.LOD1	0.048242
	3205	C	-19.790083	17.986809	-16.282043	C	3	YLD124.LOD1	-0.256632
	3206	H	-19.558979	17.240206	-15.508372	H	3	YLD124.LOD1	0.046696
	3207	H	-20.879822	18.111816	-16.295368	H	3	YLD124.LOD1	0.030906
	3208	H	-19.489280	17.555685	-17.244559	H	3	YLD124.LOD1	0.051975
	3209	C	-15.846638	21.144880	-18.881958	C	3	YLD124.LOD1	-0.203727
	3210	H	-15.784572	22.087988	-19.438858	H	3	YLD124.LOD1	0.027457
	3211	H	-16.871281	20.767785	-18.973327	H	3	YLD124.LOD1	0.031775
	3212	H	-15.669630	21.380034	-17.822573	H	3	YLD124.LOD1	0.046776
	3213	C	-14.925731	18.834062	-18.521220	C	3	YLD124.LOD1	-0.249027
	3214	H	-14.186024	18.078048	-18.812383	H	3	YLD124.LOD1	0.037596
	3215	H	-14.749638	19.070358	-17.461894	H	3	YLD124.LOD1	0.055765
	3216	H	-15.919584	18.379887	-18.601186	H	3	YLD124.LOD1	0.04836
	3217	C	-13.965386	18.442054	-21.873468	C	3	YLD124.LOD1	-0.409962
	3218	H	-13.971425	17.529990	-21.266126	H	3	YLD124.LOD1	0.090944
	3219	H	-14.212738	18.157382	-22.903520	H	3	YLD124.LOD1	0.090896
	3220	H	-12.938757	18.827993	-21.884728	H	3	YLD124.LOD1	0.069902
	3221	C	-15.073500	21.180327	-22.298281	C	3	YLD124.LOD1	-0.458602
	3222	H	-15.315291	20.932660	-23.339151	H	3	YLD124.LOD1	0.097974
	3223	H	-15.780554	21.948924	-21.966595	H	3	YLD124.LOD1	0.103309
	3224	H	-14.071640	21.626787	-22.298273	H	3	YLD124.LOD1	0.085827
	3225	C	-18.504253	22.178226	-17.045857	C	3	YLD124.LOD1	-0.493974
	3226	H	-17.426926	22.004364	-17.142529	H	3	YLD124.LOD1	0.11158
	3227	H	-18.784107	22.934267	-17.788501	H	3	YLD124.LOD1	0.113577
	3228	H	-18.688213	22.603204	-16.052303	H	3	YLD124.LOD1	0.09477
	3229	C	-21.251678	21.010607	-17.339454	C	3	YLD124.LOD1	-0.483575
	3230	H	-21.484267	21.755021	-18.110682	H	3	YLD124.LOD1	0.116965
	3231	H	-21.869137	20.126316	-17.533790	H	3	YLD124.LOD1	0.100121
	3232	H	-21.574194	21.428269	-16.378203	H	3	YLD124.LOD1	0.088084
	3233	Si	-19.454600	20.644800	-17.319400	Si	3	YLD124.LOD1	0.763339
	3234	Si	-15.134300	19.695800	-21.225200	Si	3	YLD124.LOD1	0.748472
	3235	H	-20.173456	18.537278	-19.029530	H	3	YLD124.LOD1	-0.009815
	3236	H	-19.175829	18.774993	-23.205102	H	3	YLD124.LOD1	0.057511
	3237	H	-17.797640	17.564100	-21.967986	H	3	YLD124.LOD1	-0.045737
	3238	H	-16.640828	18.324717	-23.076869	H	3	YLD124.LOD1	-0.011652
	3239	H	-17.981751	20.027947	-23.475465	H	3	YLD124.LOD1	0.023801
	3240	H	-20.753593	20.185515	-20.626543	H	3	YLD124.LOD1	-0.001966
	3241	H	-20.346932	18.667376	-21.398722	H	3	YLD124.LOD1	0.031172
	3242	H	-18.590389	18.411653	-19.814698	H	3	YLD124.LOD1	-0.066029
	3243	C	-15.456273	29.607215	-19.483415	C	3	YLD124.LOD1	-0.185058
	3244	H	-14.639882	28.964028	-19.833274	H	3	YLD124.LOD1	0.04722
	3245	H	-15.009417	30.528075	-19.089950	H	3	YLD124.LOD1	0.027573
	3246	H	-15.954388	29.095963	-18.653790	H	3	YLD124.LOD1	0.00699
	3247	C	-15.653007	30.614468	-21.770593	C	3	YLD124.LOD1	-0.347891
	3248	H	-14.859050	29.963102	-22.155725	H	3	YLD124.LOD1	0.075067
	3249	H	-16.311300	30.873327	-22.608919	H	3	YLD124.LOD1	0.071859
	3250	H	-15.181118	31.538853	-21.416247	H	3	YLD124.LOD1	0.077505
	3251	C	-17.223547	21.225294	-9.400455	C	4	YLD124.LOD1	-0.158041
	3252	C	-17.900608	20.072492	-9.668238	C	4	YLD124.LOD1	-0.174247
	3253	H	-17.543326	19.141048	-9.231819	H	4	YLD124.LOD1	0.11023
	3254	H	-17.580371	22.149010	-9.852990	H	4	YLD124.LOD1	0.116594
	3255	N	-12.594080	22.013776	-6.158021	N	4	YLD124.LOD1	-0.477879
	3256	C	-13.726709	21.814872	-6.929472	C	4	YLD124.LOD1	0.383639
	3257	C	-14.304048	20.525549	-7.085050	C	4	YLD124.LOD1	-0.278193
	3258	C	-15.418189	20.324125	-7.878312	C	4	YLD124.LOD1	-0.102205
	3259	C	-16.049342	21.382071	-8.568059	C	4	YLD124.LOD1	0.126725
	3260	C	-15.478851	22.660929	-8.402539	C	4	YLD124.LOD1	-0.148338
	3261	C	-14.363234	22.881957	-7.612411	C	4	YLD124.LOD1	-0.248652
	3262	H	-13.876987	19.669327	-6.578112	H	4	YLD124.LOD1	0.176041
	3263	H	-15.810659	19.314777	-7.959659	H	4	YLD124.LOD1	0.098595
	3264	H	-15.932950	23.509432	-8.909927	H	4	YLD124.LOD1	0.105176
	3265	H	-13.988137	23.893948	-7.524150	H	4	YLD124.LOD1	0.157607
	3266	C	-19.063799	19.944926	-10.503206	C	4	YLD124.LOD1	0.13089
	3267	C	-19.613000	18.699155	-10.706641	C	4	YLD124.LOD1	-0.298955
	3268	C	-19.680605	21.152230	-11.178016	C	4	YLD124.LOD1	0.000678
	3269	H	-19.161019	17.845453	-10.203847	H	4	YLD124.LOD1	0.128536
	3270	C	-21.166669	20.965113	-11.564242	C	4	YLD124.LOD1	0.312314
	3271	H	-19.589343	22.032947	-10.531272	H	4	YLD124.LOD1	0.009572
	3272	C	-21.320903	19.615070	-12.303012	C	4	YLD124.LOD1	0.132423
	3273	H	-20.794745	19.680611	-13.268045	H	4	YLD124.LOD1	-0.011706
	3274	C	-20.746679	18.444085	-11.534425	C	4	YLD124.LOD1	0.094029
	3275	C	-21.130595	17.138611	-11.545066	C	4	YLD124.LOD1	-0.194272
	3276	H	-20.612837	16.376245	-10.963184	H	4	YLD124.LOD1	0.118653
	3277	C	-22.234787	16.707362	-12.314287	C	4	YLD124.LOD1	0.029031
	3278	C	-22.678239	15.400594	-12.327036	C	4	YLD124.LOD1	-0.298661
	3279	H	-22.760717	17.442449	-12.912203	H	4	YLD124.LOD1	0.063317
	3280	C	-23.791928	14.892114	-13.030000	C	4	YLD124.LOD1	0.24754
	3281	C	-24.271709	13.589310	-12.954074	C	4	YLD124.LOD1	-0.281071
	3282	C	-24.712063	15.645327	-13.994833	C	4	YLD124.LOD1	-0.098074
	3283	C	-25.453421	13.470250	-13.765346	C	4	YLD124.LOD1	0.526995
	3284	C	-23.670006	12.578514	-12.162418	C	4	YLD124.LOD1	0.389724
	3285	O	-25.739475	14.671052	-14.324726	O	4	YLD124.LOD1	-0.351072
	3286	C	-24.056771	15.976803	-15.447825	C	4	YLD124.LOD1	0.617997
	3287	C	-25.441290	16.931562	-13.485727	C	4	YLD124.LOD1	0.253109
	3288	C	-26.292466	12.408646	-14.022371	C	4	YLD124.LOD1	-0.451385
	3289	N	-23.110098	11.818395	-11.480317	N	4	YLD124.LOD1	-0.428829
	3290	F	-23.497956	14.841576	-15.893654	F	4	YLD124.LOD1	-0.200469
	3291	F	-24.912344	16.410248	-16.387164	F	4	YLD124.LOD1	-0.158364
	3292	F	-23.076128	16.899166	-15.326728	F	4	YLD124.LOD1	-0.193377
	3293	C	-24.822128	17.509473	-12.367370	C	4	YLD124.LOD1	-0.158716
	3294	C	-26.641098	17.481034	-13.955012	C	4	YLD124.LOD1	-0.162688
	3295	C	-26.078607	11.114599	-13.466064	C	4	YLD124.LOD1	0.447489
	3296	C	-27.424211	12.584341	-14.873166	C	4	YLD124.LOD1	0.491336
	3297	H	-23.895665	17.089745	-11.986963	H	4	YLD124.LOD1	0.085247
	3298	C	-25.382945	18.615618	-11.735559	C	4	YLD124.LOD1	-0.074329
	3299	C	-27.196268	18.597148	-13.324242	C	4	YLD124.LOD1	-0.055824
	3300	H	-27.157796	17.051448	-14.803355	H	4	YLD124.LOD1	0.099228
	3301	N	-25.941606	10.042197	-13.032786	N	4	YLD124.LOD1	-0.454587
	3302	N	-28.352857	12.714055	-15.563686	N	4	YLD124.LOD1	-0.481156
	3303	H	-24.889593	19.046106	-10.868927	H	4	YLD124.LOD1	0.111202
	3304	C	-26.572615	19.167281	-12.215989	C	4	YLD124.LOD1	-0.106678
	3305	H	-28.128163	19.010449	-13.699814	H	4	YLD124.LOD1	0.095951
	3306	H	-27.011699	20.031481	-11.725370	H	4	YLD124.LOD1	0.103827
	3307	H	-22.146967	14.674501	-11.714093	H	4	YLD124.LOD1	0.159396
	3308	H	-22.377410	19.452645	-12.540008	H	4	YLD124.LOD1	-0.052081
	3309	H	-19.098379	21.381960	-12.083949	H	4	YLD124.LOD1	-0.003289
	3310	C	-11.987963	20.989298	-5.385318	C	4	YLD124.LOD1	0.198954
	3311	C	-12.029195	23.307366	-5.941025	C	4	YLD124.LOD1	0.115128
	3312	C	-12.516554	24.083391	-4.849799	C	4	YLD124.LOD1	0.306486
	3313	C	-12.196880	20.906013	-3.974249	C	4	YLD124.LOD1	0.28632
	3314	O	-11.421800	21.736400	-3.250090	O	4	YLD124.LOD1	-0.606883
	3315	O	-13.799200	23.781800	-4.568770	O	4	YLD124.LOD1	-0.600198
	3316	C	-16.412298	23.592875	-3.492228	C	4	YLD124.LOD1	0.267162
	3317	C	-9.607336	23.047247	-1.288916	C	4	YLD124.LOD1	0.369124
	3318	C	-8.790542	22.768974	-0.007243	C	4	YLD124.LOD1	-0.324271
	3319	H	-7.998362	22.028370	-0.173846	H	4	YLD124.LOD1	0.053925
	3320	H	-8.303603	23.691211	0.341007	H	4	YLD124.LOD1	0.070181
	3321	H	-9.420705	22.406537	0.813949	H	4	YLD124.LOD1	0.052098
	3322	C	-17.610607	24.393934	-2.936527	C	4	YLD124.LOD1	-0.316887
	3323	H	-18.418612	23.710241	-2.639252	H	4	YLD124.LOD1	0.07213
	3324	H	-17.340830	24.980810	-2.049649	H	4	YLD124.LOD1	0.059956
	3325	H	-18.028068	25.083629	-3.680640	H	4	YLD124.LOD1	0.057948
	3326	C	-10.674535	24.120681	-0.984125	C	4	YLD124.LOD1	-0.260833
	3327	H	-11.287902	24.345155	-1.864727	H	4	YLD124.LOD1	0.041714
	3328	H	-11.350763	23.808168	-0.179583	H	4	YLD124.LOD1	0.041636
	3329	H	-10.196711	25.057808	-0.663576	H	4	YLD124.LOD1	0.048242
	3330	C	-8.654086	23.586580	-2.377380	C	4	YLD124.LOD1	-0.256632
	3331	H	-8.148349	24.497500	-2.025463	H	4	YLD124.LOD1	0.046696
	3332	H	-7.872002	22.863723	-2.640358	H	4	YLD124.LOD1	0.030906
	3333	H	-9.190022	23.851515	-3.296820	H	4	YLD124.LOD1	0.051975
	3334	C	-16.875969	22.772882	-4.715893	C	4	YLD124.LOD1	-0.203727
	3335	H	-17.280994	23.413968	-5.508613	H	4	YLD124.LOD1	0.027457
	3336	H	-16.055234	22.187008	-5.144367	H	4	YLD124.LOD1	0.031775
	3337	H	-17.671756	22.071908	-4.425578	H	4	YLD124.LOD1	0.046776
	3338	C	-15.903083	22.623775	-2.403028	C	4	YLD124.LOD1	-0.249027
	3339	H	-15.593259	23.155127	-1.494638	H	4	YLD124.LOD1	0.037596
	3340	H	-16.699183	21.922512	-2.114115	H	4	YLD124.LOD1	0.055765
	3341	H	-15.049610	22.033471	-2.754509	H	4	YLD124.LOD1	0.04836
	3342	C	-14.388084	25.783776	-2.585386	C	4	YLD124.LOD1	-0.409962
	3343	H	-14.058530	25.140309	-1.761914	H	4	YLD124.LOD1	0.090944
	3344	H	-13.537680	26.412122	-2.877314	H	4	YLD124.LOD1	0.090896
	3345	H	-15.163374	26.454064	-2.194640	H	4	YLD124.LOD1	0.069902
	3346	C	-15.534015	25.948557	-5.336144	C	4	YLD124.LOD1	-0.458602
	3347	H	-14.706716	26.595081	-5.653627	H	4	YLD124.LOD1	0.097974
	3348	H	-15.889672	25.406014	-6.219228	H	4	YLD124.LOD1	0.103309
	3349	H	-16.345083	26.605870	-4.999756	H	4	YLD124.LOD1	0.085827
	3350	C	-11.706019	20.852327	-0.641168	C	4	YLD124.LOD1	-0.493974
	3351	H	-12.513498	21.578440	-0.496449	H	4	YLD124.LOD1	0.11158
	3352	H	-12.162626	19.914066	-0.976744	H	4	YLD124.LOD1	0.113577
	3353	H	-11.242162	20.666722	0.334529	H	4	YLD124.LOD1	0.09477
	3354	C	-9.267841	20.122642	-2.228705	C	4	YLD124.LOD1	-0.483575
	3355	H	-9.770343	19.213201	-2.580063	H	4	YLD124.LOD1	0.116965
	3356	H	-8.533806	20.412009	-2.989266	H	4	YLD124.LOD1	0.100121
	3357	H	-8.710411	19.855516	-1.322959	H	4	YLD124.LOD1	0.088084
	3358	Si	-10.494400	21.438900	-1.872900	Si	4	YLD124.LOD1	0.763339
	3359	Si	-15.015600	24.804400	-4.001560	Si	4	YLD124.LOD1	0.748472
	3360	H	-13.254979	21.171542	-3.833747	H	4	YLD124.LOD1	-0.009815
	3361	H	-10.945148	23.192995	-5.851903	H	4	YLD124.LOD1	0.057511
	3362	H	-11.885794	23.870367	-3.974775	H	4	YLD124.LOD1	-0.045737
	3363	H	-12.432058	25.159410	-5.063964	H	4	YLD124.LOD1	-0.011652
	3364	H	-12.203182	23.895971	-6.847889	H	4	YLD124.LOD1	0.023801
	3365	H	-12.250367	20.034958	-5.854074	H	4	YLD124.LOD1	-0.001966
	3366	H	-10.903319	21.089703	-5.480771	H	4	YLD124.LOD1	0.031172
	3367	H	-12.067384	19.874996	-3.617058	H	4	YLD124.LOD1	-0.066029
	3368	C	-21.989115	20.974388	-10.280366	C	4	YLD124.LOD1	-0.185058
	3369	H	-21.906409	21.940514	-9.768168	H	4	YLD124.LOD1	0.04722
	3370	H	-23.042422	20.828670	-10.548300	H	4	YLD124.LOD1	0.027573
	3371	H	-21.713952	20.191537	-9.566781	H	4	YLD124.LOD1	0.00699
	3372	C	-21.527570	22.090843	-12.476943	C	4	YLD124.LOD1	-0.347891
	3373	H	-21.410287	23.065633	-11.988063	H	4	YLD124.LOD1	0.075067
	3374	H	-20.929156	22.101914	-13.396142	H	4	YLD124.LOD1	0.071859
	3375	H	-22.581194	21.987897	-12.763311	H	4	YLD124.LOD1	0.077505
	3376	C	-27.956475	23.358397	-14.578899	C	1	YLD124_chi.LOD1	-0.150166
	3377	C	-26.786142	24.005779	-14.843993	C	1	YLD124_chi.LOD1	-0.190723
	3378	H	-26.304841	23.848197	-15.807962	H	1	YLD124_chi.LOD1	0.123134
	3379	H	-28.417895	23.509308	-13.604389	H	1	YLD124_chi.LOD1	0.111619
	3380	N	-30.861748	19.677030	-17.828728	N	1	YLD124_chi.LOD1	-0.506176
	3381	C	-30.168503	20.598095	-17.061386	C	1	YLD124_chi.LOD1	0.404469
	3382	C	-28.996204	21.238941	-17.545889	C	1	YLD124_chi.LOD1	-0.281203
	3383	C	-28.280212	22.123758	-16.761137	C	1	YLD124_chi.LOD1	-0.112562
	3384	C	-28.676892	22.450091	-15.446033	C	1	YLD124_chi.LOD1	0.131862
	3385	C	-29.855434	21.832119	-14.979780	C	1	YLD124_chi.LOD1	-0.140167
	3386	C	-30.584154	20.941595	-15.750103	C	1	YLD124_chi.LOD1	-0.26473
	3387	H	-28.640705	21.043895	-18.549914	H	1	YLD124_chi.LOD1	0.177954
	3388	H	-27.389583	22.577410	-17.185980	H	1	YLD124_chi.LOD1	0.098859
	3389	H	-30.207683	22.060603	-13.976126	H	1	YLD124_chi.LOD1	0.103807
	3390	H	-31.483174	20.511496	-15.326574	H	1	YLD124_chi.LOD1	0.161189
	3391	C	-26.077899	24.874839	-13.944011	C	1	YLD124_chi.LOD1	0.100982
	3392	C	-24.867398	25.404175	-14.330255	C	1	YLD124_chi.LOD1	-0.303623
	3393	C	-26.624241	25.185877	-12.566379	C	1	YLD124_chi.LOD1	0.096207
	3394	H	-24.497739	25.177541	-15.329189	H	1	YLD124_chi.LOD1	0.124941
	3395	C	-26.057036	26.482587	-11.942885	C	1	YLD124_chi.LOD1	0.409462
	3396	H	-27.717878	25.257497	-12.603410	H	1	YLD124_chi.LOD1	-0.020765
	3397	C	-24.516755	26.467502	-12.082264	C	1	YLD124_chi.LOD1	-0.014279
	3398	H	-24.113885	25.664050	-11.446254	H	1	YLD124_chi.LOD1	-0.02177
	3399	C	-24.046590	26.225008	-13.500723	C	1	YLD124_chi.LOD1	0.179445
	3400	C	-22.897919	26.630677	-14.104995	C	1	YLD124_chi.LOD1	-0.27725
	3401	H	-22.659622	26.369741	-15.136003	H	1	YLD124_chi.LOD1	0.132087
	3402	C	-21.948988	27.419450	-13.416047	C	1	YLD124_chi.LOD1	0.141075
	3403	C	-20.770385	27.848685	-13.991545	C	1	YLD124_chi.LOD1	-0.327608
	3404	H	-22.152777	27.683332	-12.384793	H	1	YLD124_chi.LOD1	-0.027316
	3405	C	-19.760867	28.623305	-13.380039	C	1	YLD124_chi.LOD1	0.260653
	3406	C	-18.550335	28.979809	-13.963613	C	1	YLD124_chi.LOD1	-0.287606
	3407	C	-19.766003	29.223818	-11.971589	C	1	YLD124_chi.LOD1	-0.056548
	3408	C	-17.770406	29.732965	-13.018440	C	1	YLD124_chi.LOD1	0.509074
	3409	C	-18.179659	28.614064	-15.282490	C	1	YLD124_chi.LOD1	0.396907
	3410	O	-18.452360	29.837929	-11.852709	O	1	YLD124_chi.LOD1	-0.366332
	3411	C	-19.939309	28.266196	-10.745269	C	1	YLD124_chi.LOD1	0.253806
	3412	C	-20.772258	30.496138	-11.770966	C	1	YLD124_chi.LOD1	0.598114
	3413	C	-16.519037	30.302562	-13.102021	C	1	YLD124_chi.LOD1	-0.43234
	3414	N	-17.962677	28.262582	-16.371485	N	1	YLD124_chi.LOD1	-0.430249
	3415	C	-15.724274	30.229750	-14.282178	C	1	YLD124_chi.LOD1	0.437474
	3416	C	-15.975427	30.996205	-11.980027	C	1	YLD124_chi.LOD1	0.49223
	3417	N	-15.041524	30.193721	-15.225106	N	1	YLD124_chi.LOD1	-0.451871
	3418	N	-15.518602	31.563552	-11.071478	N	1	YLD124_chi.LOD1	-0.482758
	3419	H	-20.567931	27.554608	-15.019980	H	1	YLD124_chi.LOD1	0.157364
	3420	H	-24.109647	27.404275	-11.687681	H	1	YLD124_chi.LOD1	0.040059
	3421	H	-26.400636	24.336651	-11.901919	H	1	YLD124_chi.LOD1	-0.024244
	3422	C	-30.496130	19.375432	-19.166907	C	1	YLD124_chi.LOD1	0.240322
	3423	C	-32.078314	19.065526	-17.391160	C	1	YLD124_chi.LOD1	0.113854
	3424	C	-33.304910	19.693602	-17.743853	C	1	YLD124_chi.LOD1	0.29958
	3425	C	-30.764597	20.312927	-20.208254	C	1	YLD124_chi.LOD1	0.285774
	3426	O	-29.962200	21.395600	-20.189300	O	1	YLD124_chi.LOD1	-0.61175
	3427	O	-33.083800	20.783300	-18.504900	O	1	YLD124_chi.LOD1	-0.599726
	3428	C	-34.872125	22.088150	-20.279707	C	1	YLD124_chi.LOD1	0.275329
	3429	C	-29.110807	24.174406	-20.840336	C	1	YLD124_chi.LOD1	0.358728
	3430	C	-27.625353	24.565135	-21.005181	C	1	YLD124_chi.LOD1	-0.337707
	3431	H	-27.307323	24.545925	-22.055027	H	1	YLD124_chi.LOD1	0.059176
	3432	H	-27.456048	25.586087	-20.633862	H	1	YLD124_chi.LOD1	0.075606
	3433	H	-26.958407	23.901796	-20.440802	H	1	YLD124_chi.LOD1	0.056098
	3434	C	-35.338382	23.493927	-20.718513	C	1	YLD124_chi.LOD1	-0.311529
	3435	H	-35.858583	23.437033	-21.685421	H	1	YLD124_chi.LOD1	0.071087
	3436	H	-36.038097	23.941192	-20.001438	H	1	YLD124_chi.LOD1	0.058721
	3437	H	-34.498310	24.188251	-20.844506	H	1	YLD124_chi.LOD1	0.056179
	3438	C	-29.498232	24.274498	-19.348846	C	1	YLD124_chi.LOD1	-0.279876
	3439	H	-30.542692	23.986269	-19.180619	H	1	YLD124_chi.LOD1	0.048405
	3440	H	-28.870574	23.634038	-18.717841	H	1	YLD124_chi.LOD1	0.047411
	3441	H	-29.376591	25.306647	-18.989579	H	1	YLD124_chi.LOD1	0.054899
	3442	C	-29.978778	25.165112	-21.646442	C	1	YLD124_chi.LOD1	-0.273001
	3443	H	-29.803137	26.194640	-21.302083	H	1	YLD124_chi.LOD1	0.0526
	3444	H	-29.751544	25.140299	-22.719471	H	1	YLD124_chi.LOD1	0.034813
	3445	H	-31.049986	24.964011	-21.524718	H	1	YLD124_chi.LOD1	0.061699
	3446	C	-33.914005	21.515820	-21.346926	C	1	YLD124_chi.LOD1	-0.202774
	3447	H	-33.033275	22.153344	-21.493490	H	1	YLD124_chi.LOD1	0.027959
	3448	H	-33.562388	20.513732	-21.077286	H	1	YLD124_chi.LOD1	0.030756
	3449	H	-34.426035	21.440176	-22.317089	H	1	YLD124_chi.LOD1	0.045471
	3450	C	-36.101359	21.160802	-20.162718	C	1	YLD124_chi.LOD1	-0.266625
	3451	H	-36.834854	21.541550	-19.441381	H	1	YLD124_chi.LOD1	0.041283
	3452	H	-36.611562	21.079891	-21.133365	H	1	YLD124_chi.LOD1	0.059445
	3453	H	-35.816044	20.149958	-19.850943	H	1	YLD124_chi.LOD1	0.054675
	3454	C	-35.154935	22.280659	-17.181313	C	1	YLD124_chi.LOD1	-0.410828
	3455	H	-36.093837	21.764253	-17.410505	H	1	YLD124_chi.LOD1	0.093855
	3456	H	-34.731330	21.815501	-16.282672	H	1	YLD124_chi.LOD1	0.090546
	3457	H	-35.400026	23.317486	-16.920890	H	1	YLD124_chi.LOD1	0.070213
	3458	C	-32.853287	23.652386	-18.489511	C	1	YLD124_chi.LOD1	-0.460074
	3459	H	-32.219334	23.608096	-17.595438	H	1	YLD124_chi.LOD1	0.099819
	3460	H	-32.192537	23.708993	-19.361704	H	1	YLD124_chi.LOD1	0.10243
	3461	H	-33.416547	24.591867	-18.436400	H	1	YLD124_chi.LOD1	0.086844
	3462	C	-27.807128	21.584893	-21.925270	C	1	YLD124_chi.LOD1	-0.477029
	3463	H	-27.557023	20.746290	-21.266206	H	1	YLD124_chi.LOD1	0.107463
	3464	H	-27.871661	21.193148	-22.946985	H	1	YLD124_chi.LOD1	0.106999
	3465	H	-26.973544	22.296338	-21.893606	H	1	YLD124_chi.LOD1	0.090486
	3466	C	-30.563659	22.320166	-22.846598	C	1	YLD124_chi.LOD1	-0.470103
	3467	H	-30.604974	21.316266	-23.286670	H	1	YLD124_chi.LOD1	0.112461
	3468	H	-31.584539	22.602981	-22.565133	H	1	YLD124_chi.LOD1	0.098066
	3469	H	-30.242866	23.007269	-23.638705	H	1	YLD124_chi.LOD1	0.083138
	3470	Si	-29.385700	22.365500	-21.443100	Si	1	YLD124_chi.LOD1	0.770043
	3471	Si	-33.980300	22.210100	-18.586200	Si	1	YLD124_chi.LOD1	0.73989
	3472	H	-30.715921	19.832128	-21.196114	H	1	YLD124_chi.LOD1	-0.017464
	3473	H	-32.099308	18.041699	-17.775276	H	1	YLD124_chi.LOD1	0.058354
	3474	H	-33.946953	18.988720	-18.291182	H	1	YLD124_chi.LOD1	-0.04034
	3475	H	-33.840891	19.987074	-16.828750	H	1	YLD124_chi.LOD1	-0.007901
	3476	H	-32.027349	18.983710	-16.300368	H	1	YLD124_chi.LOD1	0.028132
	3477	H	-29.408193	19.255537	-19.189577	H	1	YLD124_chi.LOD1	-0.011538
	3478	H	-30.917261	18.400313	-19.427764	H	1	YLD124_chi.LOD1	0.020652
	3479	H	-31.804908	20.628890	-20.048710	H	1	YLD124_chi.LOD1	-0.064856
	3480	C	-26.655955	27.660622	-12.693591	C	1	YLD124_chi.LOD1	-0.299384
	3481	H	-27.745554	27.690879	-12.573632	H	1	YLD124_chi.LOD1	0.066854
	3482	H	-26.248707	28.582587	-12.261632	H	1	YLD124_chi.LOD1	0.072315
	3483	H	-26.436329	27.667884	-13.765755	H	1	YLD124_chi.LOD1	0.027971
	3484	C	-26.438956	26.473437	-10.496749	C	1	YLD124_chi.LOD1	-0.427943
	3485	H	-27.527555	26.465278	-10.363569	H	1	YLD124_chi.LOD1	0.089807
	3486	H	-26.027184	25.615863	-9.950705	H	1	YLD124_chi.LOD1	0.091303
	3487	H	-26.054305	27.386676	-10.026986	H	1	YLD124_chi.LOD1	0.089757
	3488	C	-19.185702	27.086438	-10.839336	C	1	YLD124_chi.LOD1	-0.158763
	3489	C	-20.746139	28.465304	-9.617669	C	1	YLD124_chi.LOD1	-0.147279
	3490	C	-19.240767	26.124359	-9.834876	C	1	YLD124_chi.LOD1	-0.065518
	3491	H	-18.549148	26.920271	-11.703171	H	1	YLD124_chi.LOD1	0.080042
	3492	C	-20.805830	27.493876	-8.616018	C	1	YLD124_chi.LOD1	-0.090746
	3493	H	-21.327766	29.370320	-9.500544	H	1	YLD124_chi.LOD1	0.09871
	3494	C	-20.055949	26.323796	-8.718849	C	1	YLD124_chi.LOD1	-0.09866
	3495	H	-18.646731	25.219520	-9.925503	H	1	YLD124_chi.LOD1	0.104949
	3496	H	-20.101700	25.573804	-7.934160	H	1	YLD124_chi.LOD1	0.102095
	3497	H	-21.436865	27.664106	-7.748247	H	1	YLD124_chi.LOD1	0.105434
	3498	F	-20.322204	31.507402	-12.529174	F	1	YLD124_chi.LOD1	-0.19867
	3499	F	-20.900843	30.952741	-10.514778	F	1	YLD124_chi.LOD1	-0.154403
	3500	F	-22.004956	30.163406	-12.215348	F	1	YLD124_chi.LOD1	-0.186491
	3501	C	-6.656874	10.440249	22.974950	C	1	YLD124.LOD1	-0.158041
	3502	C	-7.077965	11.485325	22.207115	C	1	YLD124.LOD1	-0.174247
	3503	H	-8.067045	11.438146	21.754131	H	1	YLD124.LOD1	0.11023
	3504	H	-5.660880	10.490698	23.411773	H	1	YLD124.LOD1	0.116594
	3505	N	-9.396685	5.614387	24.305939	N	1	YLD124.LOD1	-0.477879
	3506	C	-8.746458	6.795656	23.990735	C	1	YLD124.LOD1	0.383639
	3507	C	-9.356939	7.786197	23.174633	C	1	YLD124.LOD1	-0.278193
	3508	C	-8.695477	8.952430	22.837714	C	1	YLD124.LOD1	-0.102205
	3509	C	-7.387057	9.230270	23.289595	C	1	YLD124.LOD1	0.126725
	3510	C	-6.789465	8.249053	24.107174	C	1	YLD124.LOD1	-0.148338
	3511	C	-7.436236	7.074974	24.454998	C	1	YLD124.LOD1	-0.248652
	3512	H	-10.362595	7.643292	22.799511	H	1	YLD124.LOD1	0.176041
	3513	H	-9.214225	9.669380	22.208177	H	1	YLD124.LOD1	0.098595
	3514	H	-5.783551	8.419976	24.484701	H	1	YLD124.LOD1	0.105176
	3515	H	-6.917777	6.372961	25.096085	H	1	YLD124.LOD1	0.157607
	3516	C	-6.329046	12.675205	21.907510	C	1	YLD124.LOD1	0.13089
	3517	C	-6.881004	13.627710	21.081053	C	1	YLD124.LOD1	-0.298955
	3518	C	-4.938099	12.887779	22.467403	C	1	YLD124.LOD1	0.000678
	3519	H	-7.886471	13.460849	20.697532	H	1	YLD124.LOD1	0.128536
	3520	C	-4.502509	14.370995	22.521269	C	1	YLD124.LOD1	0.312314
	3521	H	-4.867791	12.459605	23.474375	H	1	YLD124.LOD1	0.009572
	3522	C	-4.795396	15.024025	21.150155	C	1	YLD124.LOD1	0.132423
	3523	H	-4.131393	14.572234	20.396888	H	1	YLD124.LOD1	-0.011706
	3524	C	-6.224913	14.832813	20.690173	C	1	YLD124.LOD1	0.094029
	3525	C	-6.988527	15.637831	19.902385	C	1	YLD124.LOD1	-0.194272
	3526	H	-8.005831	15.372947	19.614650	H	1	YLD124.LOD1	0.118653
	3527	C	-6.494796	16.871331	19.421112	C	1	YLD124.LOD1	0.029031
	3528	C	-7.246895	17.732743	18.648602	C	1	YLD124.LOD1	-0.298661
	3529	H	-5.481672	17.154226	19.681900	H	1	YLD124.LOD1	0.063317
	3530	C	-6.850432	18.997031	18.161359	C	1	YLD124.LOD1	0.24754
	3531	C	-7.659288	19.885287	17.461353	C	1	YLD124.LOD1	-0.281071
	3532	C	-5.481594	19.667870	18.306736	C	1	YLD124.LOD1	-0.098074
	3533	C	-6.919142	21.088072	17.188829	C	1	YLD124.LOD1	0.526995
	3534	C	-9.007722	19.612267	17.118335	C	1	YLD124.LOD1	0.389724
	3535	O	-5.678061	20.984955	17.723377	O	1	YLD124.LOD1	-0.351072
	3536	C	-4.307121	19.036888	17.372486	C	1	YLD124.LOD1	0.617997
	3537	C	-4.899159	19.880574	19.742277	C	1	YLD124.LOD1	0.253109
	3538	C	-7.260132	22.253346	16.538502	C	1	YLD124.LOD1	-0.451385
	3539	N	-10.105680	19.300430	16.886421	N	1	YLD124.LOD1	-0.428829
	3540	F	-4.808427	18.928555	16.132836	F	1	YLD124.LOD1	-0.200469
	3541	F	-3.174929	19.754274	17.296731	F	1	YLD124.LOD1	-0.158364
	3542	F	-3.980481	17.795192	17.795068	F	1	YLD124.LOD1	-0.193377
	3543	C	-5.466157	19.025488	20.699045	C	1	YLD124.LOD1	-0.158716
	3544	C	-3.982806	20.853290	20.161571	C	1	YLD124.LOD1	-0.162688
	3545	C	-8.545928	22.456112	15.959376	C	1	YLD124.LOD1	0.447489
	3546	C	-6.309772	23.311599	16.426786	C	1	YLD124.LOD1	0.491336
	3547	H	-6.184188	18.271571	20.390411	H	1	YLD124.LOD1	0.085247
	3548	C	-5.121225	19.132912	22.043195	C	1	YLD124.LOD1	-0.074329
	3549	C	-3.631664	20.952113	21.510174	C	1	YLD124.LOD1	-0.055824
	3550	H	-3.538673	21.543073	19.455772	H	1	YLD124.LOD1	0.099228
	3551	N	-9.583590	22.663724	15.472858	N	1	YLD124.LOD1	-0.454587
	3552	N	-5.544912	24.184355	16.330277	N	1	YLD124.LOD1	-0.481156
	3553	H	-5.574209	18.463447	22.768720	H	1	YLD124.LOD1	0.111202
	3554	C	-4.196981	20.096155	22.453557	C	1	YLD124.LOD1	-0.106678
	3555	H	-2.920409	21.712964	21.819242	H	1	YLD124.LOD1	0.095951
	3556	H	-3.925103	20.181169	23.501984	H	1	YLD124.LOD1	0.103827
	3557	H	-8.266357	17.440780	18.402403	H	1	YLD124.LOD1	0.159396
	3558	H	-4.532586	16.086014	21.193348	H	1	YLD124.LOD1	-0.052081
	3559	H	-4.222386	12.323611	21.849384	H	1	YLD124.LOD1	-0.003289
	3560	C	-10.740834	5.347114	23.938102	C	1	YLD124.LOD1	0.198954
	3561	C	-8.811047	4.640067	25.169541	C	1	YLD124.LOD1	0.115128
	3562	C	-8.833307	4.900914	26.569479	C	1	YLD124.LOD1	0.306486
	3563	C	-11.800131	5.543158	24.875311	C	1	YLD124.LOD1	0.28632
	3564	O	-11.820300	4.629890	25.865400	O	1	YLD124.LOD1	-0.606883
	3565	O	-9.212650	6.170050	26.815200	O	1	YLD124.LOD1	-0.600198
	3566	C	-8.278736	7.130440	29.310863	C	1	YLD124.LOD1	0.267162
	3567	C	-14.681137	4.322209	26.625462	C	1	YLD124.LOD1	0.369124
	3568	C	-15.755056	3.253234	26.927561	C	1	YLD124.LOD1	-0.324271
	3569	H	-15.504596	2.652994	27.811180	H	1	YLD124.LOD1	0.053925
	3570	H	-16.724045	3.733325	27.126261	H	1	YLD124.LOD1	0.070181
	3571	H	-15.901893	2.565479	26.085982	H	1	YLD124.LOD1	0.052098
	3572	C	-8.697061	7.749863	30.662810	C	1	YLD124.LOD1	-0.316887
	3573	H	-7.810837	7.928739	31.288343	H	1	YLD124.LOD1	0.07213
	3574	H	-9.204226	8.714600	30.537025	H	1	YLD124.LOD1	0.059956
	3575	H	-9.365876	7.091051	31.230534	H	1	YLD124.LOD1	0.057948
	3576	C	-15.120478	5.145339	25.395215	C	1	YLD124.LOD1	-0.260833
	3577	H	-14.382212	5.913199	25.135556	H	1	YLD124.LOD1	0.041714
	3578	H	-15.266794	4.513257	24.511304	H	1	YLD124.LOD1	0.041636
	3579	H	-16.074608	5.654608	25.594095	H	1	YLD124.LOD1	0.048242
	3580	C	-14.565073	5.266404	27.841744	C	1	YLD124.LOD1	-0.256632
	3581	H	-15.537251	5.732884	28.057749	H	1	YLD124.LOD1	0.046696
	3582	H	-14.251362	4.737510	28.750145	H	1	YLD124.LOD1	0.030906
	3583	H	-13.851303	6.079571	27.662635	H	1	YLD124.LOD1	0.051975
	3584	C	-7.547909	5.795152	29.570930	C	1	YLD124.LOD1	-0.203727
	3585	H	-8.179396	5.082132	30.115235	H	1	YLD124.LOD1	0.027457
	3586	H	-7.232054	5.318550	28.636303	H	1	YLD124.LOD1	0.031775
	3587	H	-6.648818	5.965223	30.180549	H	1	YLD124.LOD1	0.046776
	3588	C	-7.315111	8.096976	28.588334	C	1	YLD124.LOD1	-0.249027
	3589	H	-7.775149	9.076915	28.410614	H	1	YLD124.LOD1	0.037596
	3590	H	-6.415860	8.265610	29.198191	H	1	YLD124.LOD1	0.055765
	3591	H	-6.992102	7.697081	27.620779	H	1	YLD124.LOD1	0.04836
	3592	C	-10.734719	8.381859	27.854277	C	1	YLD124.LOD1	-0.409962
	3593	H	-10.079264	9.122686	27.382773	H	1	YLD124.LOD1	0.090944
	3594	H	-11.576727	8.202269	27.174574	H	1	YLD124.LOD1	0.090896
	3595	H	-11.147549	8.833677	28.764484	H	1	YLD124.LOD1	0.069902
	3596	C	-11.002118	5.642918	29.009112	C	1	YLD124.LOD1	-0.458602
	3597	H	-11.859760	5.439701	28.356145	H	1	YLD124.LOD1	0.097974
	3598	H	-10.517238	4.685145	29.228757	H	1	YLD124.LOD1	0.103309
	3599	H	-11.401552	6.038052	29.951115	H	1	YLD124.LOD1	0.085827
	3600	C	-13.088835	2.443673	24.734042	C	1	YLD124.LOD1	-0.493974
	3601	H	-13.309320	3.046831	23.846465	H	1	YLD124.LOD1	0.11158
	3602	H	-12.131171	1.939514	24.560435	H	1	YLD124.LOD1	0.113577
	3603	H	-13.862029	1.670957	24.815759	H	1	YLD124.LOD1	0.09477
	3604	C	-12.437124	2.466827	27.661869	C	1	YLD124.LOD1	-0.483575
	3605	H	-11.467426	2.000808	27.448434	H	1	YLD124.LOD1	0.116965
	3606	H	-12.331014	3.047518	28.585196	H	1	YLD124.LOD1	0.100121
	3607	H	-13.147821	1.657109	27.866138	H	1	YLD124.LOD1	0.088084
	3608	Si	-12.993800	3.476200	26.235400	Si	1	YLD124.LOD1	0.763339
	3609	Si	-9.838600	6.829660	28.236600	Si	1	YLD124.LOD1	0.748472
	3610	H	-11.626354	6.543397	25.298565	H	1	YLD124.LOD1	-0.009815
	3611	H	-9.301353	3.680491	24.982475	H	1	YLD124.LOD1	0.057511
	3612	H	-9.532209	4.204906	27.055290	H	1	YLD124.LOD1	-0.045737
	3613	H	-7.837462	4.725997	27.003669	H	1	YLD124.LOD1	-0.011652
	3614	H	-7.765813	4.515794	24.867593	H	1	YLD124.LOD1	0.023801
	3615	H	-10.943129	5.912567	23.022301	H	1	YLD124.LOD1	-0.001966
	3616	H	-10.815398	4.290054	23.668454	H	1	YLD124.LOD1	0.031172
	3617	H	-12.777324	5.564831	24.373338	H	1	YLD124.LOD1	-0.066029
	3618	C	-5.301573	15.054115	23.625676	C	1	YLD124.LOD1	-0.185058
	3619	H	-5.074710	14.613836	24.604080	H	1	YLD124.LOD1	0.04722
	3620	H	-5.005596	16.109473	23.658764	H	1	YLD124.LOD1	0.027573
	3621	H	-6.385999	15.015005	23.483320	H	1	YLD124.LOD1	0.00699
	3622	C	-3.033701	14.387114	22.791220	C	1	YLD124.LOD1	-0.347891
	3623	H	-2.790193	13.913002	23.749810	H	1	YLD124.LOD1	0.075067
	3624	H	-2.451933	13.883042	22.009807	H	1	YLD124.LOD1	0.071859
	3625	H	-2.696414	15.429441	22.841423	H	1	YLD124.LOD1	0.077505
	3626	C	-10.853913	14.362188	-23.789935	C	2	YLD124.LOD1	-0.158041
	3627	C	-9.907941	13.624883	-24.438463	C	2	YLD124.LOD1	-0.174247
	3628	H	-9.356346	12.870841	-23.879120	H	2	YLD124.LOD1	0.11023
	3629	H	-11.389942	15.123294	-24.354518	H	2	YLD124.LOD1	0.116594
	3630	N	-12.511093	14.099878	-18.335396	N	2	YLD124.LOD1	-0.477879
	3631	C	-12.113559	14.144742	-19.661104	C	2	YLD124.LOD1	0.383639
	3632	C	-11.106033	13.278526	-20.165528	C	2	YLD124.LOD1	-0.278193
	3633	C	-10.690454	13.343891	-21.482405	C	2	YLD124.LOD1	-0.102205
	3634	C	-11.245740	14.262346	-22.399711	C	2	YLD124.LOD1	0.126725
	3635	C	-12.251985	15.112737	-21.897074	C	2	YLD124.LOD1	-0.148338
	3636	C	-12.681034	15.061986	-20.581362	C	2	YLD124.LOD1	-0.248652
	3637	H	-10.642240	12.543276	-19.519939	H	2	YLD124.LOD1	0.176041
	3638	H	-9.914257	12.657155	-21.806975	H	2	YLD124.LOD1	0.098595
	3639	H	-12.714353	15.834353	-22.567217	H	2	YLD124.LOD1	0.105176
	3640	H	-13.466527	15.739382	-20.270318	H	2	YLD124.LOD1	0.157607
	3641	C	-9.535783	13.748020	-25.821501	C	2	YLD124.LOD1	0.13089
	3642	C	-8.529895	12.952196	-26.321307	C	2	YLD124.LOD1	-0.298955
	3643	C	-10.215633	14.750987	-26.729940	C	2	YLD124.LOD1	0.000678
	3644	H	-8.061125	12.230009	-25.654527	H	2	YLD124.LOD1	0.128536
	3645	C	-10.115776	14.404735	-28.234170	C	2	YLD124.LOD1	0.312314
	3646	H	-11.273006	14.850185	-26.457192	H	2	YLD124.LOD1	0.009572
	3647	C	-8.644114	14.066232	-28.568552	C	2	YLD124.LOD1	0.132423
	3648	H	-8.039762	14.980070	-28.458611	H	2	YLD124.LOD1	-0.011706
	3649	C	-8.055300	13.003213	-27.665804	C	2	YLD124.LOD1	0.094029
	3650	C	-7.083589	12.089595	-27.935423	C	2	YLD124.LOD1	-0.194272
	3651	H	-6.721113	11.388412	-27.183881	H	2	YLD124.LOD1	0.118653
	3652	C	-6.497733	12.002134	-29.218404	C	2	YLD124.LOD1	0.029031
	3653	C	-5.534646	11.068749	-29.543538	C	2	YLD124.LOD1	-0.298661
	3654	H	-6.830757	12.695535	-29.981784	H	2	YLD124.LOD1	0.063317
	3655	C	-4.927678	10.883717	-30.804636	C	2	YLD124.LOD1	0.24754
	3656	C	-4.025844	9.876530	-31.129477	C	2	YLD124.LOD1	-0.281071
	3657	C	-5.134573	11.716270	-32.073071	C	2	YLD124.LOD1	-0.098074
	3658	C	-3.677575	9.981421	-32.521053	C	2	YLD124.LOD1	0.526995
	3659	C	-3.572499	8.903240	-30.203377	C	2	YLD124.LOD1	0.389724
	3660	O	-4.358533	11.011162	-33.080148	O	2	YLD124.LOD1	-0.351072
	3661	C	-4.434481	13.185910	-32.049382	C	2	YLD124.LOD1	0.617997
	3662	C	-6.584446	11.877655	-32.636253	C	2	YLD124.LOD1	0.253109
	3663	C	-2.839936	9.235873	-33.320794	C	2	YLD124.LOD1	-0.451385
	3664	N	-3.262210	8.145889	-29.374716	N	2	YLD124.LOD1	-0.428829
	3665	F	-3.172391	13.011823	-31.629147	F	2	YLD124.LOD1	-0.200469
	3666	F	-4.390552	13.828973	-33.226998	F	2	YLD124.LOD1	-0.158364
	3667	F	-5.056777	13.993589	-31.161980	F	2	YLD124.LOD1	-0.193377
	3668	C	-7.578942	11.689126	-31.664916	C	2	YLD124.LOD1	-0.158716
	3669	C	-6.968282	12.085337	-33.967127	C	2	YLD124.LOD1	-0.162688
	3670	C	-2.096442	8.127149	-32.823079	C	2	YLD124.LOD1	0.447489
	3671	C	-2.693491	9.564563	-34.701403	C	2	YLD124.LOD1	0.491336
	3672	H	-7.296751	11.519025	-30.630194	H	2	YLD124.LOD1	0.085247
	3673	C	-8.926656	11.714781	-32.011709	C	2	YLD124.LOD1	-0.074329
	3674	C	-8.322143	12.119953	-34.310141	C	2	YLD124.LOD1	-0.055824
	3675	H	-6.229753	12.215920	-34.747338	H	2	YLD124.LOD1	0.099228
	3676	N	-1.471581	7.214441	-32.458308	N	2	YLD124.LOD1	-0.454587
	3677	N	-2.566263	9.820072	-35.830365	N	2	YLD124.LOD1	-0.481156
	3678	H	-9.681100	11.563208	-31.245154	H	2	YLD124.LOD1	0.111202
	3679	C	-9.303727	11.935383	-33.338213	C	2	YLD124.LOD1	-0.106678
	3680	H	-8.603162	12.280708	-35.347199	H	2	YLD124.LOD1	0.095951
	3681	H	-10.355072	11.957154	-33.611240	H	2	YLD124.LOD1	0.103827
	3682	H	-5.216496	10.371825	-28.770080	H	2	YLD124.LOD1	0.159396
	3683	H	-8.571599	13.775283	-29.621569	H	2	YLD124.LOD1	-0.052081
	3684	H	-9.765578	15.740906	-26.556764	H	2	YLD124.LOD1	-0.003289
	3685	C	-12.020288	13.124302	-17.430623	C	2	YLD124.LOD1	0.198954
	3686	C	-13.558520	14.916522	-17.809646	C	2	YLD124.LOD1	0.115128
	3687	C	-14.893530	14.413987	-17.771057	C	2	YLD124.LOD1	0.306486
	3688	C	-12.505142	11.780984	-17.475992	C	2	YLD124.LOD1	0.28632
	3689	O	-11.941800	11.021800	-18.435700	O	2	YLD124.LOD1	-0.606883
	3690	O	-15.319200	13.985800	-18.975400	O	2	YLD124.LOD1	-0.600198
	3691	C	-16.758606	13.058451	-21.231752	C	2	YLD124.LOD1	0.267162
	3692	C	-10.389199	8.953376	-19.908145	C	2	YLD124.LOD1	0.369124
	3693	C	-9.144235	8.046351	-19.787134	C	2	YLD124.LOD1	-0.324271
	3694	H	-9.235838	7.325074	-18.965447	H	2	YLD124.LOD1	0.053925
	3695	H	-9.003929	7.467938	-20.711612	H	2	YLD124.LOD1	0.070181
	3696	H	-8.226151	8.624005	-19.625083	H	2	YLD124.LOD1	0.052098
	3697	C	-18.115462	13.100015	-21.969082	C	2	YLD124.LOD1	-0.316887
	3698	H	-18.074167	12.477877	-22.874575	H	2	YLD124.LOD1	0.07213
	3699	H	-18.935318	12.715516	-21.349604	H	2	YLD124.LOD1	0.059956
	3700	H	-18.382974	14.115564	-22.286503	H	2	YLD124.LOD1	0.057948
	3701	C	-10.200461	9.912664	-21.103226	C	2	YLD124.LOD1	-0.260833
	3702	H	-11.057812	10.585404	-21.223391	H	2	YLD124.LOD1	0.041714
	3703	H	-9.304113	10.534144	-20.991161	H	2	YLD124.LOD1	0.041636
	3704	H	-10.089294	9.344760	-22.038320	H	2	YLD124.LOD1	0.048242
	3705	C	-11.625552	8.066423	-20.170944	C	2	YLD124.LOD1	-0.256632
	3706	H	-11.481060	7.469782	-21.083376	H	2	YLD124.LOD1	0.046696
	3707	H	-11.814101	7.362574	-19.350955	H	2	YLD124.LOD1	0.030906
	3708	H	-12.534095	8.662915	-20.317688	H	2	YLD124.LOD1	0.051975
	3709	C	-15.654504	13.584994	-22.174326	C	2	YLD124.LOD1	-0.203727
	3710	H	-15.854457	14.611438	-22.505799	H	2	YLD124.LOD1	0.027457
	3711	H	-14.671255	13.573730	-21.691069	H	2	YLD124.LOD1	0.031775
	3712	H	-15.591862	12.958174	-23.075490	H	2	YLD124.LOD1	0.046776
	3713	C	-16.435937	11.597736	-20.848336	C	2	YLD124.LOD1	-0.249027
	3714	H	-17.210854	11.162530	-20.205220	H	2	YLD124.LOD1	0.037596
	3715	H	-16.372433	10.971892	-21.750169	H	2	YLD124.LOD1	0.055765
	3716	H	-15.478965	11.520620	-20.320441	H	2	YLD124.LOD1	0.04836
	3717	C	-18.120627	13.553846	-18.471413	C	2	YLD124.LOD1	-0.409962
	3718	H	-17.964355	12.502689	-18.204189	H	2	YLD124.LOD1	0.090944
	3719	H	-18.107402	14.138463	-17.543363	H	2	YLD124.LOD1	0.090896
	3720	H	-19.129055	13.643946	-18.893312	H	2	YLD124.LOD1	0.069902
	3721	C	-17.177606	15.909797	-20.042162	C	2	YLD124.LOD1	-0.458602
	3722	H	-17.172782	16.526276	-19.134890	H	2	YLD124.LOD1	0.097974
	3723	H	-16.425561	16.318926	-20.726066	H	2	YLD124.LOD1	0.103309
	3724	H	-18.160270	16.037285	-20.512447	H	2	YLD124.LOD1	0.085827
	3725	C	-9.203142	11.131818	-18.040033	C	2	YLD124.LOD1	-0.493974
	3726	H	-9.129264	11.871250	-18.845009	H	2	YLD124.LOD1	0.11158
	3727	H	-9.330462	11.680062	-17.099471	H	2	YLD124.LOD1	0.113577
	3728	H	-8.248073	10.596458	-17.986839	H	2	YLD124.LOD1	0.09477
	3729	C	-10.815689	8.901273	-16.847500	C	2	YLD124.LOD1	-0.483575
	3730	H	-10.960144	9.494549	-15.936347	H	2	YLD124.LOD1	0.116965
	3731	H	-11.669152	8.220013	-16.939580	H	2	YLD124.LOD1	0.100121
	3732	H	-9.921819	8.284803	-16.694457	H	2	YLD124.LOD1	0.088084
	3733	Si	-10.608100	9.997640	-18.303000	Si	2	YLD124.LOD1	0.763339
	3734	Si	-16.854700	14.147500	-19.656100	Si	2	YLD124.LOD1	0.748472
	3735	H	-12.392807	11.286439	-16.499966	H	2	YLD124.LOD1	-0.009815
	3736	H	-13.257804	15.249880	-16.812338	H	2	YLD124.LOD1	0.057511
	3737	H	-14.884033	13.574072	-17.061581	H	2	YLD124.LOD1	-0.045737
	3738	H	-15.594581	15.167495	-17.381728	H	2	YLD124.LOD1	-0.011652
	3739	H	-13.612067	15.816048	-18.431834	H	2	YLD124.LOD1	0.023801
	3740	H	-10.946202	13.016727	-17.615341	H	2	YLD124.LOD1	-0.001966
	3741	H	-12.118780	13.517883	-16.415223	H	2	YLD124.LOD1	0.031172
	3742	H	-13.581885	11.882224	-17.670225	H	2	YLD124.LOD1	-0.066029
	3743	C	-11.018881	13.205225	-28.499753	C	2	YLD124.LOD1	-0.185058
	3744	H	-12.067556	13.449803	-28.292273	H	2	YLD124.LOD1	0.04722
	3745	H	-10.941082	12.947708	-29.562820	H	2	YLD124.LOD1	0.027573
	3746	H	-10.761066	12.313662	-27.919733	H	2	YLD124.LOD1	0.00699
	3747	C	-10.545978	15.617237	-28.992709	C	2	YLD124.LOD1	-0.347891
	3748	H	-11.581657	15.895690	-28.762913	H	2	YLD124.LOD1	0.075067
	3749	H	-9.911730	16.490033	-28.794955	H	2	YLD124.LOD1	0.071859
	3750	H	-10.491489	15.398720	-30.066026	H	2	YLD124.LOD1	0.077505
	3751	C	3.969090	10.860975	-26.709397	C	3	YLD124.LOD1	-0.158041
	3752	C	3.204023	11.821158	-26.116276	C	3	YLD124.LOD1	-0.174247
	3753	H	3.591770	12.330718	-25.235538	H	3	YLD124.LOD1	0.11023
	3754	H	3.566556	10.347393	-27.580926	H	3	YLD124.LOD1	0.116594
	3755	N	9.170703	9.003578	-25.274005	N	3	YLD124.LOD1	-0.477879
	3756	C	7.915587	9.472328	-25.624013	C	3	YLD124.LOD1	0.383639
	3757	C	7.271956	10.500301	-24.883141	C	3	YLD124.LOD1	-0.278193
	3758	C	6.007129	10.947404	-25.216993	C	3	YLD124.LOD1	-0.102205
	3759	C	5.289418	10.419248	-26.312116	C	3	YLD124.LOD1	0.126725
	3760	C	5.936255	9.406654	-27.050081	C	3	YLD124.LOD1	-0.148338
	3761	C	7.202552	8.945955	-26.730698	C	3	YLD124.LOD1	-0.248652
	3762	H	7.767440	10.956999	-24.035553	H	3	YLD124.LOD1	0.176041
	3763	H	5.567322	11.733382	-24.610163	H	3	YLD124.LOD1	0.098595
	3764	H	5.425544	8.971827	-27.906647	H	3	YLD124.LOD1	0.105176
	3765	H	7.640005	8.173355	-27.350647	H	3	YLD124.LOD1	0.157607
	3766	C	1.892071	12.237895	-26.530486	C	3	YLD124.LOD1	0.13089
	3767	C	1.229416	13.198851	-25.800824	C	3	YLD124.LOD1	-0.298955
	3768	C	1.220052	11.623584	-27.740615	C	3	YLD124.LOD1	0.000678
	3769	H	1.734269	13.635697	-24.940485	H	3	YLD124.LOD1	0.128536
	3770	C	0.117351	12.510751	-28.364759	C	3	YLD124.LOD1	0.312314
	3771	H	1.966995	11.391253	-28.508969	H	3	YLD124.LOD1	0.009572
	3772	C	-0.820380	13.002938	-27.237551	C	3	YLD124.LOD1	0.132423
	3773	H	-1.365237	12.136904	-26.830684	H	3	YLD124.LOD1	-0.011706
	3774	C	-0.083758	13.671723	-26.096596	C	3	YLD124.LOD1	0.094029
	3775	C	-0.510534	14.654532	-25.257799	C	3	YLD124.LOD1	-0.194272
	3776	H	0.110115	15.036348	-24.447322	H	3	YLD124.LOD1	0.118653
	3777	C	-1.789756	15.236762	-25.404486	C	3	YLD124.LOD1	0.029031
	3778	C	-2.248283	16.258303	-24.597850	C	3	YLD124.LOD1	-0.298661
	3779	H	-2.432819	14.867654	-26.194859	H	3	YLD124.LOD1	0.063317
	3780	C	-3.489378	16.923531	-24.698686	C	3	YLD124.LOD1	0.24754
	3781	C	-3.890106	18.011132	-23.930705	C	3	YLD124.LOD1	-0.281071
	3782	C	-4.637693	16.618972	-25.664862	C	3	YLD124.LOD1	-0.098074
	3783	C	-5.189726	18.447107	-24.366241	C	3	YLD124.LOD1	0.526995
	3784	C	-3.092455	18.583110	-22.907441	C	3	YLD124.LOD1	0.389724
	3785	O	-5.599635	17.677270	-25.403536	O	3	YLD124.LOD1	-0.351072
	3786	C	-5.486144	15.273621	-25.317539	C	3	YLD124.LOD1	0.617997
	3787	C	-4.347461	16.627662	-27.201344	C	3	YLD124.LOD1	0.253109
	3788	C	-6.010817	19.467558	-23.940153	C	3	YLD124.LOD1	-0.451385
	3789	N	-2.365293	18.986236	-22.091804	N	3	YLD124.LOD1	-0.428829
	3790	F	-5.781793	15.323566	-24.009917	F	3	YLD124.LOD1	-0.200469
	3791	F	-6.635901	15.119792	-25.993286	F	3	YLD124.LOD1	-0.158364
	3792	F	-4.733774	14.170620	-25.528270	F	3	YLD124.LOD1	-0.193377
	3793	C	-2.986302	16.800339	-27.493734	C	3	YLD124.LOD1	-0.158716
	3794	C	-5.262750	16.549798	-28.258637	C	3	YLD124.LOD1	-0.162688
	3795	C	-5.655724	20.335818	-22.867862	C	3	YLD124.LOD1	0.447489
	3796	C	-7.268010	19.684712	-24.578804	C	3	YLD124.LOD1	0.491336
	3797	H	-2.265593	16.870473	-26.684490	H	3	YLD124.LOD1	0.085247
	3798	C	-2.546572	16.885778	-28.811533	C	3	YLD124.LOD1	-0.074329
	3799	C	-4.816806	16.626404	-29.580401	C	3	YLD124.LOD1	-0.055824
	3800	H	-6.322674	16.435583	-28.072292	H	3	YLD124.LOD1	0.099228
	3801	N	-5.405100	21.067854	-21.997313	N	3	YLD124.LOD1	-0.454587
	3802	N	-8.295647	19.874853	-25.092454	N	3	YLD124.LOD1	-0.481156
	3803	H	-1.488784	17.022940	-29.016564	H	3	YLD124.LOD1	0.111202
	3804	C	-3.462289	16.794295	-29.862034	C	3	YLD124.LOD1	-0.106678
	3805	H	-5.539805	16.565681	-30.389033	H	3	YLD124.LOD1	0.095951
	3806	H	-3.121409	16.859392	-30.891552	H	3	YLD124.LOD1	0.103827
	3807	H	-1.588240	16.626366	-23.814246	H	3	YLD124.LOD1	0.159396
	3808	H	-1.577520	13.669083	-27.663868	H	3	YLD124.LOD1	-0.052081
	3809	H	0.781785	10.657792	-27.444570	H	3	YLD124.LOD1	-0.003289
	3810	C	9.944205	9.578288	-24.232690	C	3	YLD124.LOD1	0.198954
	3811	C	9.863973	8.012239	-26.033201	C	3	YLD124.LOD1	0.115128
	3812	C	10.720354	8.438621	-27.089796	C	3	YLD124.LOD1	0.306486
	3813	C	10.786976	10.704525	-24.483235	C	3	YLD124.LOD1	0.28632
	3814	O	10.133200	11.881100	-24.537000	O	3	YLD124.LOD1	-0.606883
	3815	O	10.249900	9.549880	-27.688800	O	3	YLD124.LOD1	-0.600198
	3816	C	11.843266	9.891492	-30.005516	C	3	YLD124.LOD1	0.267162
	3817	C	9.279929	14.714654	-24.852199	C	3	YLD124.LOD1	0.369124
	3818	C	9.792304	16.165700	-24.713591	C	3	YLD124.LOD1	-0.324271
	3819	H	10.610990	16.383992	-25.410658	H	3	YLD124.LOD1	0.053925
	3820	H	8.982905	16.877179	-24.931712	H	3	YLD124.LOD1	0.070181
	3821	H	10.148825	16.383062	-23.699456	H	3	YLD124.LOD1	0.052098
	3822	C	11.818893	10.132328	-31.531243	C	3	YLD124.LOD1	-0.316887
	3823	H	12.844478	10.171751	-31.925325	H	3	YLD124.LOD1	0.07213
	3824	H	11.296489	9.331049	-32.068646	H	3	YLD124.LOD1	0.059956
	3825	H	11.335398	11.081845	-31.792606	H	3	YLD124.LOD1	0.057948
	3826	C	8.110483	14.496208	-23.867948	C	3	YLD124.LOD1	-0.260833
	3827	H	7.718695	13.473703	-23.923213	H	3	YLD124.LOD1	0.041714
	3828	H	8.409975	14.681176	-22.829523	H	3	YLD124.LOD1	0.041636
	3829	H	7.282392	15.182805	-24.096255	H	3	YLD124.LOD1	0.048242
	3830	C	8.764948	14.505856	-26.292865	C	3	YLD124.LOD1	-0.256632
	3831	H	7.969575	15.229540	-26.523201	H	3	YLD124.LOD1	0.046696
	3832	H	9.555061	14.644905	-27.041011	H	3	YLD124.LOD1	0.030906
	3833	H	8.339638	13.505010	-26.435009	H	3	YLD124.LOD1	0.051975
	3834	C	12.618040	11.040672	-29.324454	C	3	YLD124.LOD1	-0.203727
	3835	H	12.163866	12.018106	-29.528884	H	3	YLD124.LOD1	0.027457
	3836	H	12.660503	10.910914	-28.237346	H	3	YLD124.LOD1	0.031775
	3837	H	13.651541	11.077337	-29.697893	H	3	YLD124.LOD1	0.046776
	3838	C	12.566527	8.558229	-29.715486	C	3	YLD124.LOD1	-0.249027
	3839	H	12.074871	7.710168	-30.207995	H	3	YLD124.LOD1	0.037596
	3840	H	13.600249	8.596203	-30.088305	H	3	YLD124.LOD1	0.055765
	3841	H	12.606643	8.345741	-28.641403	H	3	YLD124.LOD1	0.04836
	3842	C	9.077904	8.453889	-30.079099	C	3	YLD124.LOD1	-0.409962
	3843	H	9.575408	7.487089	-29.942905	H	3	YLD124.LOD1	0.090944
	3844	H	8.079646	8.380378	-29.630429	H	3	YLD124.LOD1	0.090896
	3845	H	8.935520	8.606507	-31.155889	H	3	YLD124.LOD1	0.069902
	3846	C	9.144398	11.398881	-29.599946	C	3	YLD124.LOD1	-0.458602
	3847	H	8.138601	11.361465	-29.163843	H	3	YLD124.LOD1	0.097974
	3848	H	9.671608	12.246222	-29.147458	H	3	YLD124.LOD1	0.103309
	3849	H	9.023770	11.613674	-30.668759	H	3	YLD124.LOD1	0.085827
	3850	C	11.230484	13.631355	-22.692764	C	3	YLD124.LOD1	-0.493974
	3851	H	10.421845	13.384393	-21.996117	H	3	YLD124.LOD1	0.11158
	3852	H	12.060994	12.945258	-22.490373	H	3	YLD124.LOD1	0.113577
	3853	H	11.573684	14.646715	-22.462865	H	3	YLD124.LOD1	0.09477
	3854	C	12.113712	13.703403	-25.558463	C	3	YLD124.LOD1	-0.483575
	3855	H	12.908109	12.982310	-25.330429	H	3	YLD124.LOD1	0.116965
	3856	H	11.849167	13.583675	-26.615191	H	3	YLD124.LOD1	0.100121
	3857	H	12.542660	14.705802	-25.441584	H	3	YLD124.LOD1	0.088084
	3858	Si	10.688800	13.469900	-24.427600	Si	3	YLD124.LOD1	0.763339
	3859	Si	10.045600	9.824090	-29.341100	Si	3	YLD124.LOD1	0.748472
	3860	H	11.597701	10.765662	-23.742419	H	3	YLD124.LOD1	-0.009815
	3861	H	10.425531	7.383819	-25.336121	H	3	YLD124.LOD1	0.057511
	3862	H	11.708752	8.643159	-26.653749	H	3	YLD124.LOD1	-0.045737
	3863	H	10.848336	7.644390	-27.840556	H	3	YLD124.LOD1	-0.011652
	3864	H	9.108422	7.365156	-26.490976	H	3	YLD124.LOD1	0.023801
	3865	H	9.244805	9.942798	-23.472871	H	3	YLD124.LOD1	-0.001966
	3866	H	10.523647	8.781243	-23.758757	H	3	YLD124.LOD1	0.031172
	3867	H	11.248659	10.494131	-25.457881	H	3	YLD124.LOD1	-0.066029
	3868	C	0.797772	13.688852	-29.053238	C	3	YLD124.LOD1	-0.185058
	3869	H	1.441020	13.346527	-29.872769	H	3	YLD124.LOD1	0.04722
	3870	H	0.018862	14.327969	-29.486028	H	3	YLD124.LOD1	0.027573
	3871	H	1.405454	14.307451	-28.385531	H	3	YLD124.LOD1	0.00699
	3872	C	-0.642806	11.655220	-29.324385	C	3	YLD124.LOD1	-0.347891
	3873	H	-0.000574	11.273628	-30.127440	H	3	YLD124.LOD1	0.075067
	3874	H	-1.122085	10.795457	-28.840392	H	3	YLD124.LOD1	0.071859
	3875	H	-1.430119	12.261184	-29.788792	H	3	YLD124.LOD1	0.077505
	3876	C	-1.934953	11.700340	-13.329448	C	1	YLD124_chi.LOD1	-0.150166
	3877	C	-1.199352	10.776961	-12.647304	C	1	YLD124_chi.LOD1	-0.190723
	3878	H	-1.338946	10.684315	-11.571363	H	1	YLD124_chi.LOD1	0.123134
	3879	H	-1.772448	11.796477	-14.401690	H	1	YLD124_chi.LOD1	0.111619
	3880	N	-5.767503	15.437005	-11.353755	N	1	YLD124_chi.LOD1	-0.506176
	3881	C	-4.862090	14.503112	-11.828976	C	1	YLD124_chi.LOD1	0.404469
	3882	C	-4.249076	13.554391	-10.966507	C	1	YLD124_chi.LOD1	-0.281203
	3883	C	-3.311399	12.652847	-11.434870	C	1	YLD124_chi.LOD1	-0.112562
	3884	C	-2.920660	12.613806	-12.791020	C	1	YLD124_chi.LOD1	0.131862
	3885	C	-3.551554	13.539268	-13.647605	C	1	YLD124_chi.LOD1	-0.140167
	3886	C	-4.490798	14.451210	-13.196335	C	1	YLD124_chi.LOD1	-0.26473
	3887	H	-4.510128	13.520274	-9.916184	H	1	YLD124_chi.LOD1	0.177954
	3888	H	-2.874489	11.956037	-10.725591	H	1	YLD124_chi.LOD1	0.098859
	3889	H	-3.291572	13.540362	-14.704020	H	1	YLD124_chi.LOD1	0.103807
	3890	H	-4.937772	15.126995	-13.914755	H	1	YLD124_chi.LOD1	0.161189
	3891	C	-0.200760	9.908731	-13.209292	C	1	YLD124_chi.LOD1	0.100982
	3892	C	0.511036	9.072982	-12.378892	C	1	YLD124_chi.LOD1	-0.303623
	3893	C	0.105121	9.926759	-14.692268	C	1	YLD124_chi.LOD1	0.096207
	3894	H	0.267744	9.066886	-11.317454	H	1	YLD124_chi.LOD1	0.124941
	3895	C	0.786452	8.638323	-15.209610	C	1	YLD124_chi.LOD1	0.409462
	3896	H	-0.815346	10.096701	-15.263585	H	1	YLD124_chi.LOD1	-0.020765
	3897	C	1.964826	8.289013	-14.270707	C	1	YLD124_chi.LOD1	-0.014279
	3898	H	2.739675	9.064259	-14.375356	H	1	YLD124_chi.LOD1	-0.02177
	3899	C	1.566392	8.216096	-12.812003	C	1	YLD124_chi.LOD1	0.179445
	3900	C	2.116682	7.482398	-11.808024	C	1	YLD124_chi.LOD1	-0.27725
	3901	H	1.751612	7.534158	-10.782403	H	1	YLD124_chi.LOD1	0.132087
	3902	C	3.199870	6.607811	-12.051093	C	1	YLD124_chi.LOD1	0.141075
	3903	C	3.788444	5.848791	-11.060126	C	1	YLD124_chi.LOD1	-0.327608
	3904	H	3.592911	6.545538	-13.059204	H	1	YLD124_chi.LOD1	-0.027316
	3905	C	4.878452	4.963303	-11.204692	C	1	YLD124_chi.LOD1	0.260653
	3906	C	5.496102	4.266138	-10.172456	C	1	YLD124_chi.LOD1	-0.287606
	3907	C	5.612844	4.585691	-12.494052	C	1	YLD124_chi.LOD1	-0.056548
	3908	C	6.591033	3.500086	-10.704599	C	1	YLD124_chi.LOD1	0.509074
	3909	C	5.086151	4.348453	-8.817550	C	1	YLD124_chi.LOD1	0.396907
	3910	O	6.687341	3.716989	-12.038273	O	1	YLD124_chi.LOD1	-0.366332
	3911	C	6.269958	5.722275	-13.346813	C	1	YLD124_chi.LOD1	0.253806
	3912	C	4.773006	3.612033	-13.503002	C	1	YLD124_chi.LOD1	0.598114
	3913	C	7.504188	2.659424	-10.107284	C	1	YLD124_chi.LOD1	-0.43234
	3914	N	4.680200	4.484040	-7.734337	N	1	YLD124_chi.LOD1	-0.430249
	3915	C	7.488293	2.384267	-8.709515	C	1	YLD124_chi.LOD1	0.437474
	3916	C	8.513281	2.028694	-10.894325	C	1	YLD124_chi.LOD1	0.49223
	3917	N	7.512205	2.132400	-7.572612	N	1	YLD124_chi.LOD1	-0.451871
	3918	N	9.343374	1.508779	-11.524141	N	1	YLD124_chi.LOD1	-0.482758
	3919	H	3.399088	5.940880	-10.047669	H	1	YLD124_chi.LOD1	0.157364
	3920	H	2.423088	7.350869	-14.600640	H	1	YLD124_chi.LOD1	0.040059
	3921	H	0.754774	10.790232	-14.904538	H	1	YLD124_chi.LOD1	-0.024244
	3922	C	-6.212199	15.469623	-10.005266	C	1	YLD124_chi.LOD1	0.240322
	3923	C	-6.445852	16.360177	-12.209758	C	1	YLD124_chi.LOD1	0.113854
	3924	C	-7.690951	15.962404	-12.771464	C	1	YLD124_chi.LOD1	0.29958
	3925	C	-7.317650	14.663193	-9.605252	C	1	YLD124_chi.LOD1	0.285774
	3926	O	-7.093080	13.342400	-9.751310	O	1	YLD124_chi.LOD1	-0.61175
	3927	O	-7.854110	14.627500	-12.688800	O	1	YLD124_chi.LOD1	-0.599726
	3928	C	-10.466873	13.555865	-13.062192	C	1	YLD124_chi.LOD1	0.275329
	3929	C	-6.788079	10.411115	-9.321342	C	1	YLD124_chi.LOD1	0.358728
	3930	C	-5.357059	9.829954	-9.292174	C	1	YLD124_chi.LOD1	-0.337707
	3931	H	-4.976258	9.721210	-8.269015	H	1	YLD124_chi.LOD1	0.059176
	3932	H	-5.341577	8.831185	-9.751636	H	1	YLD124_chi.LOD1	0.075606
	3933	H	-4.646623	10.452656	-9.849742	H	1	YLD124_chi.LOD1	0.056098
	3934	C	-10.506736	12.695720	-11.779727	C	1	YLD124_chi.LOD1	-0.311529
	3935	H	-11.530594	12.655098	-11.381200	H	1	YLD124_chi.LOD1	0.071087
	3936	H	-10.191047	11.661274	-11.964406	H	1	YLD124_chi.LOD1	0.058721
	3937	H	-9.867945	13.104498	-10.986930	H	1	YLD124_chi.LOD1	0.056179
	3938	C	-7.274570	10.485773	-10.785040	C	1	YLD124_chi.LOD1	-0.279876
	3939	H	-8.282205	10.912188	-10.856549	H	1	YLD124_chi.LOD1	0.048405
	3940	H	-6.609965	11.096280	-11.407851	H	1	YLD124_chi.LOD1	0.047411
	3941	H	-7.306971	9.480708	-11.230008	H	1	YLD124_chi.LOD1	0.054899
	3942	C	-7.724504	9.468631	-8.534251	C	1	YLD124_chi.LOD1	-0.273001
	3943	H	-7.702208	8.458323	-8.968003	H	1	YLD124_chi.LOD1	0.0526
	3944	H	-7.431482	9.374512	-7.481198	H	1	YLD124_chi.LOD1	0.034813
	3945	H	-8.766876	9.808193	-8.564299	H	1	YLD124_chi.LOD1	0.061699
	3946	C	-10.946733	14.985269	-12.728952	C	1	YLD124_chi.LOD1	-0.202774
	3947	H	-10.322577	15.460520	-11.962030	H	1	YLD124_chi.LOD1	0.027959
	3948	H	-10.939569	15.629833	-13.614958	H	1	YLD124_chi.LOD1	0.030756
	3949	H	-11.975710	14.961041	-12.341999	H	1	YLD124_chi.LOD1	0.045471
	3950	C	-11.417197	12.941868	-14.113177	C	1	YLD124_chi.LOD1	-0.266625
	3951	H	-11.142670	11.908947	-14.360202	H	1	YLD124_chi.LOD1	0.041283
	3952	H	-12.447553	12.921709	-13.729810	H	1	YLD124_chi.LOD1	0.059445
	3953	H	-11.418908	13.521286	-15.043061	H	1	YLD124_chi.LOD1	0.054675
	3954	C	-8.615838	14.288679	-15.443861	C	1	YLD124_chi.LOD1	-0.410828
	3955	H	-9.052160	15.292737	-15.491105	H	1	YLD124_chi.LOD1	0.093855
	3956	H	-7.584364	14.357642	-15.810839	H	1	YLD124_chi.LOD1	0.090546
	3957	H	-9.165478	13.653142	-16.148765	H	1	YLD124_chi.LOD1	0.070213
	3958	C	-7.875301	11.952147	-13.741876	C	1	YLD124_chi.LOD1	-0.460074
	3959	H	-7.378522	11.748819	-12.785271	H	1	YLD124_chi.LOD1	0.099819
	3960	H	-8.600726	11.149601	-13.915648	H	1	YLD124_chi.LOD1	0.10243
	3961	H	-7.107934	11.882694	-14.522281	H	1	YLD124_chi.LOD1	0.086844
	3962	C	-5.147252	12.622081	-7.909405	C	1	YLD124_chi.LOD1	-0.477029
	3963	H	-5.117766	13.661367	-7.564168	H	1	YLD124_chi.LOD1	0.107463
	3964	H	-4.893250	11.983783	-7.055245	H	1	YLD124_chi.LOD1	0.106999
	3965	H	-4.361504	12.496971	-8.663703	H	1	YLD124_chi.LOD1	0.090486
	3966	C	-8.051338	12.324444	-7.237873	C	1	YLD124_chi.LOD1	-0.470103
	3967	H	-7.655111	11.951635	-6.285401	H	1	YLD124_chi.LOD1	0.112461
	3968	H	-8.396364	13.352130	-7.075943	H	1	YLD124_chi.LOD1	0.098066
	3969	H	-8.933614	11.719808	-7.479649	H	1	YLD124_chi.LOD1	0.083138
	3970	Si	-6.794030	12.182300	-8.563950	Si	1	YLD124_chi.LOD1	0.770043
	3971	Si	-8.675650	13.601100	-13.746200	Si	1	YLD124_chi.LOD1	0.73989
	3972	H	-7.612939	14.876999	-8.567709	H	1	YLD124_chi.LOD1	-0.017464
	3973	H	-6.585649	17.293717	-11.657338	H	1	YLD124_chi.LOD1	0.058354
	3974	H	-8.503067	16.464999	-12.226936	H	1	YLD124_chi.LOD1	-0.04034
	3975	H	-7.755024	16.276038	-13.824243	H	1	YLD124_chi.LOD1	-0.007901
	3976	H	-5.769751	16.592093	-13.039349	H	1	YLD124_chi.LOD1	0.028132
	3977	H	-5.379359	15.125800	-9.383447	H	1	YLD124_chi.LOD1	-0.011538
	3978	H	-6.390368	16.512814	-9.729108	H	1	YLD124_chi.LOD1	0.020652
	3979	H	-8.153713	14.963257	-10.252162	H	1	YLD124_chi.LOD1	-0.064856
	3980	C	-0.252833	7.529354	-15.207795	C	1	YLD124_chi.LOD1	-0.299384
	3981	H	-1.076318	7.760611	-15.894034	H	1	YLD124_chi.LOD1	0.066854
	3982	H	0.228365	6.610771	-15.564326	H	1	YLD124_chi.LOD1	0.072315
	3983	H	-0.684698	7.320807	-14.224015	H	1	YLD124_chi.LOD1	0.027971
	3984	C	1.299044	8.938137	-16.582429	C	1	YLD124_chi.LOD1	-0.427943
	3985	H	0.487930	9.208096	-17.269502	H	1	YLD124_chi.LOD1	0.089807
	3986	H	2.035633	9.750787	-16.596313	H	1	YLD124_chi.LOD1	0.091303
	3987	H	1.784246	8.038393	-16.979518	H	1	YLD124_chi.LOD1	0.089757
	3988	C	6.954812	6.678220	-12.581473	C	1	YLD124_chi.LOD1	-0.158763
	3989	C	6.232848	5.870857	-14.739166	C	1	YLD124_chi.LOD1	-0.147279
	3990	C	7.582558	7.761115	-13.190440	C	1	YLD124_chi.LOD1	-0.065518
	3991	H	6.999723	6.573419	-11.501648	H	1	YLD124_chi.LOD1	0.080042
	3992	C	6.856205	6.963400	-15.346055	C	1	YLD124_chi.LOD1	-0.090746
	3993	H	5.730204	5.144713	-15.364567	H	1	YLD124_chi.LOD1	0.09871
	3994	C	7.532016	7.909599	-14.577959	C	1	YLD124_chi.LOD1	-0.09866
	3995	H	8.110385	8.488085	-12.579916	H	1	YLD124_chi.LOD1	0.104949
	3996	H	8.020018	8.754641	-15.055533	H	1	YLD124_chi.LOD1	0.102095
	3997	H	6.817609	7.063611	-16.427109	H	1	YLD124_chi.LOD1	0.105434
	3998	F	4.661185	2.404678	-12.928659	F	1	YLD124_chi.LOD1	-0.19867
	3999	F	5.299995	3.436070	-14.725437	F	1	YLD124_chi.LOD1	-0.154403
	4000	F	3.526668	4.111469	-13.660918	F	1	YLD124_chi.LOD1	-0.186491
	4001	C	15.898622	16.197814	-25.939293	C	2	YLD124_chi.LOD1	-0.150166
	4002	C	15.851284	17.427270	-26.526878	C	2	YLD124_chi.LOD1	-0.190723
	4003	H	16.680654	17.739927	-27.159420	H	2	YLD124_chi.LOD1	0.123134
	4004	H	15.072295	15.904557	-25.293896	H	2	YLD124_chi.LOD1	0.111619
	4005	N	19.998565	12.237157	-26.180379	N	2	YLD124_chi.LOD1	-0.506176
	4006	C	18.993434	13.189464	-26.156196	C	2	YLD124_chi.LOD1	0.404469
	4007	C	19.087965	14.391169	-26.908977	C	2	YLD124_chi.LOD1	-0.281203
	4008	C	18.104380	15.360807	-26.847783	C	2	YLD124_chi.LOD1	-0.112562
	4009	C	16.950003	15.208651	-26.049279	C	2	YLD124_chi.LOD1	0.131862
	4010	C	16.848278	14.002956	-25.325265	C	2	YLD124_chi.LOD1	-0.140167
	4011	C	17.824196	13.021701	-25.372002	C	2	YLD124_chi.LOD1	-0.26473
	4012	H	19.941063	14.569038	-27.551687	H	2	YLD124_chi.LOD1	0.177954
	4013	H	18.236345	16.259980	-27.442413	H	2	YLD124_chi.LOD1	0.098859
	4014	H	15.971167	13.834694	-24.704001	H	2	YLD124_chi.LOD1	0.103807
	4015	H	17.673492	12.118773	-24.793549	H	2	YLD124_chi.LOD1	0.161189
	4016	C	14.805978	18.401222	-26.366899	C	2	YLD124_chi.LOD1	0.100982
	4017	C	14.931602	19.631130	-26.972079	C	2	YLD124_chi.LOD1	-0.303623
	4018	C	13.589383	18.108658	-25.514017	C	2	YLD124_chi.LOD1	0.096207
	4019	H	15.808435	19.817290	-27.590454	H	2	YLD124_chi.LOD1	0.124941
	4020	C	12.363666	18.992759	-25.842506	C	2	YLD124_chi.LOD1	0.409462
	4021	H	13.304994	17.054347	-25.614478	H	2	YLD124_chi.LOD1	-0.020765
	4022	C	12.819251	20.469532	-25.903374	C	2	YLD124_chi.LOD1	-0.014279
	4023	H	13.117689	20.787510	-24.892348	H	2	YLD124_chi.LOD1	-0.02177
	4024	C	13.992321	20.696054	-26.833147	C	2	YLD124_chi.LOD1	0.179445
	4025	C	14.331697	21.813680	-27.529557	C	2	YLD124_chi.LOD1	-0.27725
	4026	H	15.223637	21.861306	-28.154078	H	2	YLD124_chi.LOD1	0.132087
	4027	C	13.533591	22.978758	-27.475707	C	2	YLD124_chi.LOD1	0.141075
	4028	C	13.844395	24.133720	-28.164192	C	2	YLD124_chi.LOD1	-0.327608
	4029	H	12.647307	22.965290	-26.852035	H	2	YLD124_chi.LOD1	-0.027316
	4030	C	13.119121	25.344944	-28.159682	C	2	YLD124_chi.LOD1	0.260653
	4031	C	13.496736	26.515781	-28.807439	C	2	YLD124_chi.LOD1	-0.287606
	4032	C	11.792575	25.638835	-27.453795	C	2	YLD124_chi.LOD1	-0.056548
	4033	C	12.526589	27.542760	-28.537228	C	2	YLD124_chi.LOD1	0.509074
	4034	C	14.676887	26.634524	-29.584453	C	2	YLD124_chi.LOD1	0.396907
	4035	O	11.564435	27.050865	-27.720340	O	2	YLD124_chi.LOD1	-0.366332
	4036	C	11.705190	25.442938	-25.903047	C	2	YLD124_chi.LOD1	0.253806
	4037	C	10.481326	24.934969	-28.129890	C	2	YLD124_chi.LOD1	0.598114
	4038	C	12.443253	28.859392	-28.933315	C	2	YLD124_chi.LOD1	-0.43234
	4039	N	15.667653	26.636334	-30.196751	N	2	YLD124_chi.LOD1	-0.430249
	4040	C	13.416535	29.465359	-29.779039	C	2	YLD124_chi.LOD1	0.437474
	4041	C	11.352714	29.667899	-28.494495	C	2	YLD124_chi.LOD1	0.49223
	4042	N	14.188698	30.000247	-30.467673	N	2	YLD124_chi.LOD1	-0.451871
	4043	N	10.469264	30.339868	-28.142348	N	2	YLD124_chi.LOD1	-0.482758
	4044	H	14.751188	24.140390	-28.766544	H	2	YLD124_chi.LOD1	0.157364
	4045	H	11.967897	21.098420	-26.183859	H	2	YLD124_chi.LOD1	0.040059
	4046	H	13.862724	18.247114	-24.456280	H	2	YLD124_chi.LOD1	-0.024244
	4047	C	21.163653	12.315845	-26.990894	C	2	YLD124_chi.LOD1	0.240322
	4048	C	19.884842	10.998142	-25.476266	C	2	YLD124_chi.LOD1	0.113854
	4049	C	19.107953	9.968210	-26.075298	C	2	YLD124_chi.LOD1	0.29958
	4050	C	21.458445	11.460082	-28.102396	C	2	YLD124_chi.LOD1	0.285774
	4051	O	22.196100	11.960500	-29.113200	O	2	YLD124_chi.LOD1	-0.61175
	4052	O	18.591900	10.379100	-27.250300	O	2	YLD124_chi.LOD1	-0.599726
	4053	C	17.447930	10.262639	-29.845016	C	2	YLD124_chi.LOD1	0.275329
	4054	C	24.136882	10.112058	-30.391884	C	2	YLD124_chi.LOD1	0.358728
	4055	C	25.614451	9.680751	-30.260804	C	2	YLD124_chi.LOD1	-0.337707
	4056	H	25.891868	9.468006	-29.220867	H	2	YLD124_chi.LOD1	0.059176
	4057	H	25.796767	8.763521	-30.839022	H	2	YLD124_chi.LOD1	0.075606
	4058	H	26.303369	10.444661	-30.641846	H	2	YLD124_chi.LOD1	0.056098
	4059	C	16.140616	10.765912	-30.496017	C	2	YLD124_chi.LOD1	-0.311529
	4060	H	16.299398	10.959696	-31.566528	H	2	YLD124_chi.LOD1	0.071087
	4061	H	15.329178	10.031537	-30.417879	H	2	YLD124_chi.LOD1	0.058721
	4062	H	15.788649	11.703142	-30.047241	H	2	YLD124_chi.LOD1	0.056179
	4063	C	23.807026	10.342636	-31.882752	C	2	YLD124_chi.LOD1	-0.279876
	4064	H	22.770139	10.670459	-32.023004	H	2	YLD124_chi.LOD1	0.048405
	4065	H	24.459223	11.099089	-32.335222	H	2	YLD124_chi.LOD1	0.047411
	4066	H	23.941237	9.412306	-32.453432	H	2	YLD124_chi.LOD1	0.054899
	4067	C	23.237417	8.977942	-29.853904	C	2	YLD124_chi.LOD1	-0.273001
	4068	H	23.425018	8.046415	-30.407460	H	2	YLD124_chi.LOD1	0.0526
	4069	H	23.423219	8.766482	-28.793526	H	2	YLD124_chi.LOD1	0.034813
	4070	H	22.171915	9.210863	-29.968781	H	2	YLD124_chi.LOD1	0.061699
	4071	C	18.545367	11.335309	-30.016831	C	2	YLD124_chi.LOD1	-0.202774
	4072	H	18.263060	12.290230	-29.556362	H	2	YLD124_chi.LOD1	0.027959
	4073	H	19.494656	11.015704	-29.572733	H	2	YLD124_chi.LOD1	0.030756
	4074	H	18.724628	11.529177	-31.084255	H	2	YLD124_chi.LOD1	0.045471
	4075	C	17.900006	8.967088	-30.553433	C	2	YLD124_chi.LOD1	-0.266625
	4076	H	17.138283	8.180002	-30.493564	H	2	YLD124_chi.LOD1	0.041283
	4077	H	18.084764	9.160398	-31.619972	H	2	YLD124_chi.LOD1	0.059445
	4078	H	18.826210	8.572776	-30.120910	H	2	YLD124_chi.LOD1	0.054675
	4079	C	16.820762	8.146173	-27.647856	C	2	YLD124_chi.LOD1	-0.410828
	4080	H	16.372989	7.644233	-28.512897	H	2	YLD124_chi.LOD1	0.093855
	4081	H	17.745440	7.612183	-27.396469	H	2	YLD124_chi.LOD1	0.090546
	4082	H	16.137087	8.021055	-26.799426	H	2	YLD124_chi.LOD1	0.070213
	4083	C	15.766813	10.915027	-27.296408	C	2	YLD124_chi.LOD1	-0.460074
	4084	H	16.133281	11.688389	-26.610233	H	2	YLD124_chi.LOD1	0.099819
	4085	H	15.196676	11.416267	-28.086484	H	2	YLD124_chi.LOD1	0.10243
	4086	H	15.069158	10.287684	-26.728584	H	2	YLD124_chi.LOD1	0.086844
	4087	C	24.306920	13.215610	-30.402966	C	2	YLD124_chi.LOD1	-0.477029
	4088	H	23.496956	13.952719	-30.431310	H	2	YLD124_chi.LOD1	0.107463
	4089	H	25.183590	13.706052	-29.964279	H	2	YLD124_chi.LOD1	0.106999
	4090	H	24.556165	12.951457	-31.437431	H	2	YLD124_chi.LOD1	0.090486
	4091	C	24.763509	11.737955	-27.836520	C	2	YLD124_chi.LOD1	-0.470103
	4092	H	25.729075	12.246781	-27.945898	H	2	YLD124_chi.LOD1	0.112461
	4093	H	24.222177	12.223032	-27.016115	H	2	YLD124_chi.LOD1	0.098066
	4094	H	24.974393	10.708598	-27.522824	H	2	YLD124_chi.LOD1	0.083138
	4095	Si	23.841100	11.748900	-29.420300	Si	2	YLD124_chi.LOD1	0.770043
	4096	Si	17.143700	9.918710	-27.982900	Si	2	YLD124_chi.LOD1	0.73989
	4097	H	21.944383	10.559998	-27.698520	H	2	YLD124_chi.LOD1	-0.017464
	4098	H	20.892965	10.609948	-25.305381	H	2	YLD124_chi.LOD1	0.058354
	4099	H	19.729895	9.076776	-26.240164	H	2	YLD124_chi.LOD1	-0.04034
	4100	H	18.291567	9.680840	-25.395779	H	2	YLD124_chi.LOD1	-0.007901
	4101	H	19.468243	11.217752	-24.487664	H	2	YLD124_chi.LOD1	0.028132
	4102	H	21.174328	13.318121	-27.431149	H	2	YLD124_chi.LOD1	-0.011538
	4103	H	22.033338	12.262393	-26.329801	H	2	YLD124_chi.LOD1	0.020652
	4104	H	20.474462	11.156769	-28.486210	H	2	YLD124_chi.LOD1	-0.064856
	4105	C	11.811042	18.542100	-27.184642	C	2	YLD124_chi.LOD1	-0.299384
	4106	H	11.460833	17.503994	-27.137536	H	2	YLD124_chi.LOD1	0.066854
	4107	H	10.947530	19.173079	-27.426867	H	2	YLD124_chi.LOD1	0.072315
	4108	H	12.523754	18.618339	-28.011716	H	2	YLD124_chi.LOD1	0.027971
	4109	C	11.381968	18.806768	-24.729350	C	2	YLD124_chi.LOD1	-0.427943
	4110	H	11.052484	17.763882	-24.647615	H	2	YLD124_chi.LOD1	0.089807
	4111	H	11.778905	19.111248	-23.753190	H	2	YLD124_chi.LOD1	0.091303
	4112	H	10.496210	19.418970	-24.937392	H	2	YLD124_chi.LOD1	0.089757
	4113	C	12.820664	25.934397	-25.208220	C	2	YLD124_chi.LOD1	-0.158763
	4114	C	10.667384	24.842977	-25.178405	C	2	YLD124_chi.LOD1	-0.147279
	4115	C	12.902113	25.823948	-23.823036	C	2	YLD124_chi.LOD1	-0.065518
	4116	H	13.630187	26.409315	-25.754251	H	2	YLD124_chi.LOD1	0.080042
	4117	C	10.756495	24.725850	-23.789564	C	2	YLD124_chi.LOD1	-0.090746
	4118	H	9.782884	24.468364	-25.676792	H	2	YLD124_chi.LOD1	0.09871
	4119	C	11.869324	25.214432	-23.107740	C	2	YLD124_chi.LOD1	-0.09866
	4120	H	13.772872	26.214090	-23.304005	H	2	YLD124_chi.LOD1	0.104949
	4121	H	11.931129	25.125799	-22.026702	H	2	YLD124_chi.LOD1	0.102095
	4122	H	9.942768	24.257598	-23.242941	H	2	YLD124_chi.LOD1	0.105434
	4123	F	9.311499	25.505993	-27.805054	F	2	YLD124_chi.LOD1	-0.19867
	4124	F	10.407149	23.635219	-27.800986	F	2	YLD124_chi.LOD1	-0.154403
	4125	F	10.619833	25.011735	-29.472520	F	2	YLD124_chi.LOD1	-0.186491
	4126	C	26.572544	13.519915	-22.868384	C	1	YLD124.LOD1	-0.158041
	4127	C	25.568827	14.413523	-23.098793	C	1	YLD124.LOD1	-0.174247
	4128	H	25.730702	15.208089	-23.825540	H	1	YLD124.LOD1	0.11023
	4129	H	26.406054	12.737724	-22.129587	H	1	YLD124.LOD1	0.116594
	4130	N	31.750568	13.225642	-25.249248	N	1	YLD124.LOD1	-0.477879
	4131	C	30.486062	13.295664	-24.689187	C	1	YLD124.LOD1	0.383639
	4132	C	29.559572	14.304839	-25.067424	C	1	YLD124.LOD1	-0.278193
	4133	C	28.307869	14.390314	-24.486839	C	1	YLD124.LOD1	-0.102205
	4134	C	27.875874	13.480236	-23.497651	C	1	YLD124.LOD1	0.126725
	4135	C	28.794841	12.474819	-23.132999	C	1	YLD124.LOD1	-0.148338
	4136	C	30.052735	12.373490	-23.703255	C	1	YLD124.LOD1	-0.248652
	4137	H	29.820770	15.031611	-25.826410	H	1	YLD124.LOD1	0.176041
	4138	H	27.646119	15.185955	-24.816196	H	1	YLD124.LOD1	0.098595
	4139	H	28.505913	11.746354	-22.378369	H	1	YLD124.LOD1	0.105176
	4140	H	30.700059	11.567619	-23.380521	H	1	YLD124.LOD1	0.157607
	4141	C	24.283427	14.431708	-22.455463	C	1	YLD124.LOD1	0.13089
	4142	C	23.386727	15.427296	-22.771195	C	1	YLD124.LOD1	-0.298955
	4143	C	23.908584	13.388885	-21.423275	C	1	YLD124.LOD1	0.000678
	4144	H	23.671395	16.161221	-23.523665	H	1	YLD124.LOD1	0.128536
	4145	C	22.383593	13.206369	-21.239811	C	1	YLD124.LOD1	0.312314
	4146	H	24.353519	12.421783	-21.685983	H	1	YLD124.LOD1	0.009572
	4147	C	21.733974	14.599905	-21.071764	C	1	YLD124.LOD1	0.132423
	4148	H	22.073261	15.032918	-20.117924	H	1	YLD124.LOD1	-0.011706
	4149	C	22.095605	15.565563	-22.180092	C	1	YLD124.LOD1	0.094029
	4150	C	21.373797	16.602708	-22.684868	C	1	YLD124.LOD1	-0.194272
	4151	H	21.759977	17.250409	-23.471767	H	1	YLD124.LOD1	0.118653
	4152	C	20.072955	16.887036	-22.211706	C	1	YLD124.LOD1	0.029031
	4153	C	19.294122	17.906991	-22.719217	C	1	YLD124.LOD1	-0.298661
	4154	H	19.668672	16.266238	-21.420741	H	1	YLD124.LOD1	0.063317
	4155	C	17.975225	18.234599	-22.336860	C	1	YLD124.LOD1	0.24754
	4156	C	17.179300	19.209773	-22.927445	C	1	YLD124.LOD1	-0.281071
	4157	C	17.136844	17.593607	-21.227299	C	1	YLD124.LOD1	-0.098074
	4158	C	15.883049	19.206564	-22.304147	C	1	YLD124.LOD1	0.526995
	4159	C	17.614926	20.034585	-23.995337	C	1	YLD124.LOD1	0.389724
	4160	O	15.839805	18.237204	-21.358035	O	1	YLD124.LOD1	-0.351072
	4161	C	17.582113	17.995388	-19.713815	C	1	YLD124.LOD1	0.617997
	4162	C	16.892812	16.049559	-21.268518	C	1	YLD124.LOD1	0.253109
	4163	C	14.753266	19.963731	-22.521750	C	1	YLD124.LOD1	-0.451385
	4164	N	18.059764	20.660379	-24.871145	N	1	YLD124.LOD1	-0.428829
	4165	F	17.718026	19.329766	-19.686622	F	1	YLD124.LOD1	-0.200469
	4166	F	16.721816	17.650013	-18.742814	F	1	YLD124.LOD1	-0.158364
	4167	F	18.782782	17.452469	-19.412628	F	1	YLD124.LOD1	-0.193377
	4168	C	17.866440	15.355524	-22.002293	C	1	YLD124.LOD1	-0.158716
	4169	C	15.800649	15.340729	-20.752352	C	1	YLD124.LOD1	-0.162688
	4170	C	14.702242	20.993569	-23.504910	C	1	YLD124.LOD1	0.447489
	4171	C	13.577697	19.728536	-21.748260	C	1	YLD124.LOD1	0.491336
	4172	H	18.714861	15.892712	-22.415603	H	1	YLD124.LOD1	0.085247
	4173	C	17.757424	13.983618	-22.210256	C	1	YLD124.LOD1	-0.074329
	4174	C	15.699271	13.962145	-20.954892	C	1	YLD124.LOD1	-0.055824
	4175	H	15.020027	15.844462	-20.197293	H	1	YLD124.LOD1	0.099228
	4176	N	14.616917	21.843357	-24.296822	N	1	YLD124.LOD1	-0.454587
	4177	N	12.610517	19.545821	-21.126002	N	1	YLD124.LOD1	-0.481156
	4178	H	18.520249	13.465465	-22.784173	H	1	YLD124.LOD1	0.111202
	4179	C	16.672953	13.279849	-21.681964	C	1	YLD124.LOD1	-0.106678
	4180	H	14.845141	13.427281	-20.549078	H	1	YLD124.LOD1	0.095951
	4181	H	16.586251	12.208737	-21.841794	H	1	YLD124.LOD1	0.103827
	4182	H	19.708646	18.516518	-23.520345	H	1	YLD124.LOD1	0.159396
	4183	H	20.648585	14.483650	-20.987083	H	1	YLD124.LOD1	-0.052081
	4184	H	24.356520	13.674666	-20.458827	H	1	YLD124.LOD1	-0.003289
	4185	C	32.161614	14.080988	-26.303239	C	1	YLD124.LOD1	0.198954
	4186	C	32.658250	12.179899	-24.903134	C	1	YLD124.LOD1	0.115128
	4187	C	32.339023	10.836138	-25.262931	C	1	YLD124.LOD1	0.306486
	4188	C	31.761271	13.732741	-27.624093	C	1	YLD124.LOD1	0.28632
	4189	O	30.966600	12.645100	-27.613100	O	1	YLD124.LOD1	-0.606883
	4190	O	31.158700	10.428400	-24.757300	O	1	YLD124.LOD1	-0.600198
	4191	C	31.567970	8.649262	-22.591746	C	1	YLD124.LOD1	0.267162
	4192	C	29.922616	10.459629	-29.342555	C	1	YLD124.LOD1	0.369124
	4193	C	28.706726	10.066262	-30.210971	C	1	YLD124.LOD1	-0.324271
	4194	H	28.571610	10.742271	-31.064526	H	1	YLD124.LOD1	0.053925
	4195	H	28.841812	9.053826	-30.617951	H	1	YLD124.LOD1	0.070181
	4196	H	27.772617	10.061383	-29.636305	H	1	YLD124.LOD1	0.052098
	4197	C	31.230510	7.253370	-22.022495	C	1	YLD124.LOD1	-0.316887
	4198	H	31.721051	7.112239	-21.048774	H	1	YLD124.LOD1	0.07213
	4199	H	30.153039	7.120154	-21.864169	H	1	YLD124.LOD1	0.059956
	4200	H	31.575464	6.444501	-22.678541	H	1	YLD124.LOD1	0.057948
	4201	C	30.067116	9.445230	-28.187485	C	1	YLD124.LOD1	-0.260833
	4202	H	30.914225	9.689721	-27.535796	H	1	YLD124.LOD1	0.041714
	4203	H	29.167416	9.406897	-27.561941	H	1	YLD124.LOD1	0.041636
	4204	H	30.233009	8.432793	-28.583370	H	1	YLD124.LOD1	0.048242
	4205	C	31.194645	10.405196	-30.216224	C	1	YLD124.LOD1	-0.256632
	4206	H	31.322551	9.399786	-30.643053	H	1	YLD124.LOD1	0.046696
	4207	H	31.152742	11.109887	-31.055860	H	1	YLD124.LOD1	0.030906
	4208	H	32.099404	10.625752	-29.636954	H	1	YLD124.LOD1	0.051975
	4209	C	33.098396	8.771082	-22.758157	C	1	YLD124.LOD1	-0.203727
	4210	H	33.499907	8.000781	-23.428133	H	1	YLD124.LOD1	0.027457
	4211	H	33.384589	9.748920	-23.161106	H	1	YLD124.LOD1	0.031775
	4212	H	33.598249	8.650100	-21.786336	H	1	YLD124.LOD1	0.046776
	4213	C	31.083777	9.730123	-21.600732	C	1	YLD124.LOD1	-0.249027
	4214	H	30.003868	9.664709	-21.419030	H	1	YLD124.LOD1	0.037596
	4215	H	31.584940	9.609019	-20.629555	H	1	YLD124.LOD1	0.055765
	4216	H	31.302469	10.739802	-21.965612	H	1	YLD124.LOD1	0.04836
	4217	C	28.875048	8.781242	-24.157056	C	1	YLD124.LOD1	-0.409962
	4218	H	28.483943	9.498117	-23.426379	H	1	YLD124.LOD1	0.090944
	4219	H	28.392792	8.990918	-25.119705	H	1	YLD124.LOD1	0.090896
	4220	H	28.551753	7.779950	-23.847316	H	1	YLD124.LOD1	0.069902
	4221	C	31.273133	7.657268	-25.532776	C	1	YLD124.LOD1	-0.458602
	4222	H	30.809368	7.836188	-26.510591	H	1	YLD124.LOD1	0.097974
	4223	H	32.359789	7.697014	-25.667978	H	1	YLD124.LOD1	0.103309
	4224	H	31.011496	6.634566	-25.234991	H	1	YLD124.LOD1	0.085827
	4225	C	28.226797	12.267550	-27.472461	C	1	YLD124.LOD1	-0.493974
	4226	H	28.373929	11.615446	-26.604522	H	1	YLD124.LOD1	0.11158
	4227	H	28.075112	13.286274	-27.097453	H	1	YLD124.LOD1	0.113577
	4228	H	27.303089	11.956238	-27.973905	H	1	YLD124.LOD1	0.09477
	4229	C	29.465567	13.459176	-29.930692	C	1	YLD124.LOD1	-0.483575
	4230	H	29.338033	14.462783	-29.506957	H	1	YLD124.LOD1	0.116965
	4231	H	30.319290	13.493931	-30.616944	H	1	YLD124.LOD1	0.100121
	4232	H	28.573365	13.245220	-30.531242	H	1	YLD124.LOD1	0.088084
	4233	Si	29.663800	12.217400	-28.595600	Si	1	YLD124.LOD1	0.763339
	4234	Si	30.700700	8.873910	-24.287300	Si	1	YLD124.LOD1	0.748472
	4235	H	31.228363	14.575267	-28.088830	H	1	YLD124.LOD1	-0.009815
	4236	H	33.646452	12.443616	-25.290547	H	1	YLD124.LOD1	0.057511
	4237	H	32.297121	10.818763	-26.361497	H	1	YLD124.LOD1	-0.045737
	4238	H	33.131105	10.138733	-24.951390	H	1	YLD124.LOD1	-0.011652
	4239	H	32.749565	12.163681	-23.812020	H	1	YLD124.LOD1	0.023801
	4240	H	31.776063	15.081854	-26.081946	H	1	YLD124.LOD1	-0.001966
	4241	H	33.251899	14.159485	-26.275648	H	1	YLD124.LOD1	0.031172
	4242	H	32.652839	13.532144	-28.234190	H	1	YLD124.LOD1	-0.066029
	4243	C	21.842981	12.505376	-22.481232	C	1	YLD124.LOD1	-0.185058
	4244	H	22.278734	11.504742	-22.588174	H	1	YLD124.LOD1	0.04722
	4245	H	20.759558	12.385672	-22.361468	H	1	YLD124.LOD1	0.027573
	4246	H	22.018401	13.049361	-23.414550	H	1	YLD124.LOD1	0.00699
	4247	C	22.184838	12.397348	-20.000121	C	1	YLD124.LOD1	-0.347891
	4248	H	22.651377	11.407925	-20.079842	H	1	YLD124.LOD1	0.075067
	4249	H	22.585797	12.886546	-19.103981	H	1	YLD124.LOD1	0.071859
	4250	H	21.109470	12.245789	-19.847347	H	1	YLD124.LOD1	0.077505
	4251	C	27.925469	15.176695	-20.648802	C	1	YLD124_chi.LOD1	-0.150166
	4252	C	27.834416	16.244879	-21.491269	C	1	YLD124_chi.LOD1	-0.190723
	4253	H	26.903202	16.808138	-21.527300	H	1	YLD124_chi.LOD1	0.123134
	4254	H	28.855095	14.610140	-20.635955	H	1	YLD124_chi.LOD1	0.111619
	4255	N	23.980140	12.986589	-17.157059	N	1	YLD124_chi.LOD1	-0.506176
	4256	C	24.942355	13.546127	-17.980966	C	1	YLD124_chi.LOD1	0.404469
	4257	C	24.685586	14.725219	-18.731647	C	1	YLD124_chi.LOD1	-0.281203
	4258	C	25.631950	15.256241	-19.588265	C	1	YLD124_chi.LOD1	-0.112562
	4259	C	26.905017	14.669283	-19.755969	C	1	YLD124_chi.LOD1	0.131862
	4260	C	27.164358	13.514998	-18.988758	C	1	YLD124_chi.LOD1	-0.140167
	4261	C	26.228299	12.967320	-18.127767	C	1	YLD124_chi.LOD1	-0.26473
	4262	H	23.733986	15.234273	-18.643258	H	1	YLD124_chi.LOD1	0.177954
	4263	H	25.374355	16.156363	-20.138661	H	1	YLD124_chi.LOD1	0.098859
	4264	H	28.135830	13.032974	-19.075350	H	1	YLD124_chi.LOD1	0.103807
	4265	H	26.501882	12.082841	-17.566120	H	1	YLD124_chi.LOD1	0.161189
	4266	C	28.857504	16.700459	-22.392701	C	1	YLD124_chi.LOD1	0.100982
	4267	C	28.593013	17.756610	-23.234892	C	1	YLD124_chi.LOD1	-0.303623
	4268	C	30.205598	16.013610	-22.455832	C	1	YLD124_chi.LOD1	0.096207
	4269	H	27.621663	18.244011	-23.165616	H	1	YLD124_chi.LOD1	0.124941
	4270	C	31.330566	16.890028	-23.054381	C	1	YLD124_chi.LOD1	0.409462
	4271	H	30.506252	15.683576	-21.454220	H	1	YLD124_chi.LOD1	-0.020765
	4272	C	30.820329	17.521167	-24.370984	C	1	YLD124_chi.LOD1	-0.014279
	4273	H	30.678833	16.720307	-25.113245	H	1	YLD124_chi.LOD1	-0.02177
	4274	C	29.504984	18.253828	-24.213001	C	1	YLD124_chi.LOD1	0.179445
	4275	C	29.018822	19.306751	-24.922977	C	1	YLD124_chi.LOD1	-0.27725
	4276	H	28.036372	19.736129	-24.727329	H	1	YLD124_chi.LOD1	0.132087
	4277	C	29.774311	19.900573	-25.959265	C	1	YLD124_chi.LOD1	0.141075
	4278	C	29.316287	20.967557	-26.705125	C	1	YLD124_chi.LOD1	-0.327608
	4279	H	30.749864	19.486085	-26.185414	H	1	YLD124_chi.LOD1	-0.027316
	4280	C	29.990359	21.613591	-27.764074	C	1	YLD124_chi.LOD1	0.260653
	4281	C	29.472497	22.640866	-28.544821	C	1	YLD124_chi.LOD1	-0.287606
	4282	C	31.402776	21.332575	-28.284152	C	1	YLD124_chi.LOD1	-0.056548
	4283	C	30.437483	23.010374	-29.545396	C	1	YLD124_chi.LOD1	0.509074
	4284	C	28.178650	23.189983	-28.357641	C	1	YLD124_chi.LOD1	0.396907
	4285	O	31.535718	22.226655	-29.424271	O	1	YLD124_chi.LOD1	-0.366332
	4286	C	31.747019	19.890497	-28.787207	C	1	YLD124_chi.LOD1	0.253806
	4287	C	32.611113	21.827844	-27.300920	C	1	YLD124_chi.LOD1	0.598114
	4288	C	30.409934	23.953598	-30.548850	C	1	YLD124_chi.LOD1	-0.43234
	4289	N	27.102305	23.572513	-28.130303	N	1	YLD124_chi.LOD1	-0.430249
	4290	C	29.292107	24.811250	-30.760075	C	1	YLD124_chi.LOD1	0.437474
	4291	C	31.528528	24.097271	-31.422709	C	1	YLD124_chi.LOD1	0.49223
	4292	N	28.400530	25.531133	-30.968442	N	1	YLD124_chi.LOD1	-0.451871
	4293	N	32.433576	24.224100	-32.144400	N	1	YLD124_chi.LOD1	-0.482758
	4294	H	28.324197	21.356926	-26.483097	H	1	YLD124_chi.LOD1	0.157364
	4295	H	31.592714	18.182648	-24.776988	H	1	YLD124_chi.LOD1	0.040059
	4296	H	30.102631	15.096441	-23.056574	H	1	YLD124_chi.LOD1	-0.024244
	4297	C	22.712843	13.590597	-16.945278	C	1	YLD124_chi.LOD1	0.240322
	4298	C	24.199427	11.834908	-16.336264	C	1	YLD124_chi.LOD1	0.113854
	4299	C	24.251634	11.977025	-14.920005	C	1	YLD124_chi.LOD1	0.29958
	4300	C	22.642129	14.690941	-16.045881	C	1	YLD124_chi.LOD1	0.285774
	4301	O	23.796200	15.386500	-16.021400	O	1	YLD124_chi.LOD1	-0.61175
	4302	O	25.005900	13.028200	-14.543600	O	1	YLD124_chi.LOD1	-0.599726
	4303	C	27.648894	13.036614	-13.511320	C	1	YLD124_chi.LOD1	0.275329
	4304	C	23.097419	17.964507	-14.729485	C	1	YLD124_chi.LOD1	0.358728
	4305	C	22.639772	19.350584	-15.235219	C	1	YLD124_chi.LOD1	-0.337707
	4306	H	21.951882	19.273167	-16.086397	H	1	YLD124_chi.LOD1	0.059176
	4307	H	22.109598	19.891434	-14.438174	H	1	YLD124_chi.LOD1	0.075606
	4308	H	23.485221	19.977865	-15.543590	H	1	YLD124_chi.LOD1	0.056098
	4309	C	28.437098	12.693817	-12.227817	C	1	YLD124_chi.LOD1	-0.311529
	4310	H	29.502268	12.554611	-12.461894	H	1	YLD124_chi.LOD1	0.071087
	4311	H	28.373253	13.491117	-11.476763	H	1	YLD124_chi.LOD1	0.058721
	4312	H	28.085253	11.765199	-11.761390	H	1	YLD124_chi.LOD1	0.056179
	4313	C	24.017520	18.151277	-13.503438	C	1	YLD124_chi.LOD1	-0.279876
	4314	H	24.383870	17.191191	-13.120952	H	1	YLD124_chi.LOD1	0.048405
	4315	H	24.891040	18.771726	-13.736500	H	1	YLD124_chi.LOD1	0.047411
	4316	H	23.472767	18.647760	-12.687380	H	1	YLD124_chi.LOD1	0.054899
	4317	C	21.854168	17.156103	-14.298801	C	1	YLD124_chi.LOD1	-0.273001
	4318	H	21.299573	17.695624	-13.517327	H	1	YLD124_chi.LOD1	0.0526
	4319	H	21.158624	16.987222	-15.130269	H	1	YLD124_chi.LOD1	0.034813
	4320	H	22.125378	16.178115	-13.883194	H	1	YLD124_chi.LOD1	0.061699
	4321	C	27.806588	11.883489	-14.526183	C	1	YLD124_chi.LOD1	-0.202774
	4322	H	27.438738	10.930346	-14.126424	H	1	YLD124_chi.LOD1	0.027959
	4323	H	27.265922	12.088646	-15.456834	H	1	YLD124_chi.LOD1	0.030756
	4324	H	28.867041	11.742182	-14.780316	H	1	YLD124_chi.LOD1	0.045471
	4325	C	28.225597	14.328886	-14.129483	C	1	YLD124_chi.LOD1	-0.266625
	4326	H	28.172194	15.175308	-13.433762	H	1	YLD124_chi.LOD1	0.041283
	4327	H	29.284688	14.187588	-14.389044	H	1	YLD124_chi.LOD1	0.059445
	4328	H	27.693047	14.611089	-15.044450	H	1	YLD124_chi.LOD1	0.054675
	4329	C	25.445488	14.983792	-12.478027	C	1	YLD124_chi.LOD1	-0.410828
	4330	H	26.068969	15.730464	-12.982500	H	1	YLD124_chi.LOD1	0.093855
	4331	H	24.396942	15.257667	-12.648064	H	1	YLD124_chi.LOD1	0.090546
	4332	H	25.628988	15.069979	-11.400158	H	1	YLD124_chi.LOD1	0.070213
	4333	C	25.197087	12.079296	-11.836655	C	1	YLD124_chi.LOD1	-0.460074
	4334	H	25.139594	11.067490	-12.256377	H	1	YLD124_chi.LOD1	0.099819
	4335	H	25.853881	12.037767	-10.960634	H	1	YLD124_chi.LOD1	0.10243
	4336	H	24.190553	12.338443	-11.486741	H	1	YLD124_chi.LOD1	0.086844
	4337	C	25.877673	17.215944	-15.902177	C	1	YLD124_chi.LOD1	-0.477029
	4338	H	26.287188	16.400577	-15.295837	H	1	YLD124_chi.LOD1	0.107463
	4339	H	26.381015	17.187678	-16.875510	H	1	YLD124_chi.LOD1	0.106999
	4340	H	26.145052	18.161815	-15.416528	H	1	YLD124_chi.LOD1	0.090486
	4341	C	23.578276	17.658754	-17.771406	C	1	YLD124_chi.LOD1	-0.470103
	4342	H	23.947286	18.678664	-17.935117	H	1	YLD124_chi.LOD1	0.112461
	4343	H	23.949298	17.034289	-18.592253	H	1	YLD124_chi.LOD1	0.098066
	4344	H	22.485612	17.692763	-17.857318	H	1	YLD124_chi.LOD1	0.083138
	4345	Si	24.072100	17.047900	-16.115300	Si	1	YLD124_chi.LOD1	0.770043
	4346	Si	25.797800	13.288000	-13.076800	Si	1	YLD124_chi.LOD1	0.73989
	4347	H	21.810493	15.360789	-16.308729	H	1	YLD124_chi.LOD1	-0.017464
	4348	H	23.447883	11.087672	-16.606501	H	1	YLD124_chi.LOD1	0.058354
	4349	H	23.218114	12.126026	-14.576083	H	1	YLD124_chi.LOD1	-0.04034
	4350	H	24.631035	11.062076	-14.440695	H	1	YLD124_chi.LOD1	-0.007901
	4351	H	25.168444	11.415109	-16.625908	H	1	YLD124_chi.LOD1	0.028132
	4352	H	22.359048	13.954262	-17.915367	H	1	YLD124_chi.LOD1	-0.011538
	4353	H	22.008868	12.813494	-16.634176	H	1	YLD124_chi.LOD1	0.020652
	4354	H	22.436949	14.292187	-15.042671	H	1	YLD124_chi.LOD1	-0.064856
	4355	C	31.673671	17.965742	-22.037043	C	1	YLD124_chi.LOD1	-0.299384
	4356	H	32.062588	17.523070	-21.112210	H	1	YLD124_chi.LOD1	0.066854
	4357	H	32.464173	18.596299	-22.461263	H	1	YLD124_chi.LOD1	0.072315
	4358	H	30.834166	18.615416	-21.770628	H	1	YLD124_chi.LOD1	0.027971
	4359	C	32.485472	15.982539	-23.337235	C	1	YLD124_chi.LOD1	-0.427943
	4360	H	32.859726	15.503847	-22.424196	H	1	YLD124_chi.LOD1	0.089807
	4361	H	32.241646	15.190717	-24.056068	H	1	YLD124_chi.LOD1	0.091303
	4362	H	33.304100	16.578205	-23.758744	H	1	YLD124_chi.LOD1	0.089757
	4363	C	30.742540	19.314153	-29.579325	C	1	YLD124_chi.LOD1	-0.158763
	4364	C	32.908651	19.152799	-28.525460	C	1	YLD124_chi.LOD1	-0.147279
	4365	C	30.890478	18.028929	-30.093018	C	1	YLD124_chi.LOD1	-0.065518
	4366	H	29.839302	19.875664	-29.798164	H	1	YLD124_chi.LOD1	0.080042
	4367	C	33.049856	17.860173	-29.035085	C	1	YLD124_chi.LOD1	-0.090746
	4368	H	33.713134	19.570016	-27.934021	H	1	YLD124_chi.LOD1	0.09871
	4369	C	32.045979	17.294471	-29.818793	C	1	YLD124_chi.LOD1	-0.09866
	4370	H	30.102353	17.602524	-30.706910	H	1	YLD124_chi.LOD1	0.104949
	4371	H	32.163253	16.290655	-30.217437	H	1	YLD124_chi.LOD1	0.102095
	4372	H	33.957106	17.301751	-28.822314	H	1	YLD124_chi.LOD1	0.105434
	4373	F	33.218726	20.804529	-26.681475	F	1	YLD124_chi.LOD1	-0.19867
	4374	F	32.051230	22.602419	-26.357737	F	1	YLD124_chi.LOD1	-0.154403
	4375	F	33.563678	22.559611	-27.921298	F	1	YLD124_chi.LOD1	-0.186491
	4376	C	18.754840	28.916166	-12.059548	C	2	YLD124_chi.LOD1	-0.150166
	4377	C	18.054172	27.753289	-12.185405	C	2	YLD124_chi.LOD1	-0.190723
	4378	H	18.372175	26.883314	-11.612923	H	2	YLD124_chi.LOD1	0.123134
	4379	H	18.438544	29.773342	-12.651630	H	2	YLD124_chi.LOD1	0.111619
	4380	N	23.397293	30.012648	-8.929082	N	2	YLD124_chi.LOD1	-0.506176
	4381	C	22.250205	29.747175	-9.658108	C	2	YLD124_chi.LOD1	0.404469
	4382	C	21.606093	28.481769	-9.598287	C	2	YLD124_chi.LOD1	-0.281203
	4383	C	20.487378	28.204179	-10.361701	C	2	YLD124_chi.LOD1	-0.112562
	4384	C	19.915714	29.159896	-11.229544	C	2	YLD124_chi.LOD1	0.131862
	4385	C	20.542650	30.422408	-11.265038	C	2	YLD124_chi.LOD1	-0.140167
	4386	C	21.665041	30.717946	-10.509817	C	2	YLD124_chi.LOD1	-0.26473
	4387	H	21.984143	27.705223	-8.945183	H	2	YLD124_chi.LOD1	0.177954
	4388	H	20.043177	27.216823	-10.276125	H	2	YLD124_chi.LOD1	0.098859
	4389	H	20.132000	31.195815	-11.910648	H	2	YLD124_chi.LOD1	0.103807
	4390	H	22.087763	31.712095	-10.584464	H	2	YLD124_chi.LOD1	0.161189
	4391	C	16.925077	27.535559	-13.048295	C	2	YLD124_chi.LOD1	0.100982
	4392	C	16.361661	26.281633	-13.118493	C	2	YLD124_chi.LOD1	-0.303623
	4393	C	16.371218	28.652972	-13.907208	C	2	YLD124_chi.LOD1	0.096207
	4394	H	16.767413	25.494926	-12.484193	H	2	YLD124_chi.LOD1	0.124941
	4395	C	14.908929	28.432452	-14.359982	C	2	YLD124_chi.LOD1	0.409462
	4396	H	16.437754	29.607176	-13.370915	H	2	YLD124_chi.LOD1	-0.020765
	4397	C	14.776391	27.000346	-14.928865	C	2	YLD124_chi.LOD1	-0.014279
	4398	H	15.359534	26.936654	-15.860657	H	2	YLD124_chi.LOD1	-0.02177
	4399	C	15.282275	25.931672	-13.983402	C	2	YLD124_chi.LOD1	0.179445
	4400	C	14.895744	24.632863	-13.871046	C	2	YLD124_chi.LOD1	-0.27725
	4401	H	15.357292	23.948179	-13.159686	H	2	YLD124_chi.LOD1	0.132087
	4402	C	13.864763	24.104601	-14.680551	C	2	YLD124_chi.LOD1	0.141075
	4403	C	13.445297	22.792310	-14.600005	C	2	YLD124_chi.LOD1	-0.327608
	4404	H	13.396298	24.758741	-15.406699	H	2	YLD124_chi.LOD1	-0.027316
	4405	C	12.438754	22.174690	-15.373647	C	2	YLD124_chi.LOD1	0.260653
	4406	C	12.087705	20.830506	-15.319110	C	2	YLD124_chi.LOD1	-0.287606
	4407	C	11.535163	22.824854	-16.424923	C	2	YLD124_chi.LOD1	-0.056548
	4408	C	11.051861	20.570154	-16.282504	C	2	YLD124_chi.LOD1	0.509074
	4409	C	12.701334	19.896244	-14.446630	C	2	YLD124_chi.LOD1	0.396907
	4410	O	10.761638	21.711175	-16.952467	O	2	YLD124_chi.LOD1	-0.366332
	4411	C	12.198469	23.544444	-17.646782	C	2	YLD124_chi.LOD1	0.253806
	4412	C	10.377612	23.810097	-15.823901	C	2	YLD124_chi.LOD1	0.598114
	4413	C	10.375161	19.418883	-16.620148	C	2	YLD124_chi.LOD1	-0.43234
	4414	N	13.266184	19.204072	-13.699387	N	2	YLD124_chi.LOD1	-0.430249
	4415	C	10.624512	18.170957	-15.979659	C	2	YLD124_chi.LOD1	0.437474
	4416	C	9.383639	19.449812	-17.645550	C	2	YLD124_chi.LOD1	0.49223
	4417	N	10.796787	17.131421	-15.483430	N	2	YLD124_chi.LOD1	-0.451871
	4418	N	8.573336	19.460073	-18.481815	N	2	YLD124_chi.LOD1	-0.482758
	4419	H	13.942443	22.140725	-13.883465	H	2	YLD124_chi.LOD1	0.157364
	4420	H	13.733155	26.817740	-15.206871	H	2	YLD124_chi.LOD1	0.040059
	4421	H	17.012897	28.761688	-14.795533	H	2	YLD124_chi.LOD1	-0.024244
	4422	C	23.970564	29.089717	-8.014170	C	2	YLD124_chi.LOD1	0.240322
	4423	C	24.020569	31.299547	-8.929699	C	2	YLD124_chi.LOD1	0.113854
	4424	C	23.495807	32.292466	-8.056481	C	2	YLD124_chi.LOD1	0.29958
	4425	C	23.565969	29.065798	-6.645504	C	2	YLD124_chi.LOD1	0.285774
	4426	O	22.406000	28.418000	-6.419170	O	2	YLD124_chi.LOD1	-0.61175
	4427	O	22.282000	31.935000	-7.593540	O	2	YLD124_chi.LOD1	-0.599726
	4428	C	20.586843	33.482913	-5.890683	C	2	YLD124_chi.LOD1	0.275329
	4429	C	22.588379	25.452145	-6.602258	C	2	YLD124_chi.LOD1	0.358728
	4430	C	24.088362	25.125870	-6.429022	C	2	YLD124_chi.LOD1	-0.337707
	4431	H	24.338383	24.870739	-5.391676	H	2	YLD124_chi.LOD1	0.059176
	4432	H	24.365172	24.262426	-7.050894	H	2	YLD124_chi.LOD1	0.075606
	4433	H	24.730877	25.961491	-6.732787	H	2	YLD124_chi.LOD1	0.056098
	4434	C	21.712332	32.954098	-4.974285	C	2	YLD124_chi.LOD1	-0.311529
	4435	H	21.570114	33.320808	-3.947613	H	2	YLD124_chi.LOD1	0.071087
	4436	H	21.727237	31.858050	-4.926312	H	2	YLD124_chi.LOD1	0.058721
	4437	H	22.704542	33.288653	-5.301809	H	2	YLD124_chi.LOD1	0.056179
	4438	C	22.303324	25.748944	-8.090651	C	2	YLD124_chi.LOD1	-0.279876
	4439	H	21.250740	26.005923	-8.258882	H	2	YLD124_chi.LOD1	0.048405
	4440	H	22.912786	26.578794	-8.467765	H	2	YLD124_chi.LOD1	0.047411
	4441	H	22.532924	24.868379	-8.707977	H	2	YLD124_chi.LOD1	0.054899
	4442	C	21.758469	24.222551	-6.173276	C	2	YLD124_chi.LOD1	-0.273001
	4443	H	22.040638	23.343750	-6.771147	H	2	YLD124_chi.LOD1	0.0526
	4444	H	21.916288	23.960547	-5.119669	H	2	YLD124_chi.LOD1	0.034813
	4445	H	20.683718	24.381359	-6.323061	H	2	YLD124_chi.LOD1	0.061699
	4446	C	20.613659	35.026862	-5.887097	C	2	YLD124_chi.LOD1	-0.202774
	4447	H	21.574552	35.422522	-6.238865	H	2	YLD124_chi.LOD1	0.027959
	4448	H	19.825090	35.445319	-6.522371	H	2	YLD124_chi.LOD1	0.030756
	4449	H	20.458440	35.408085	-4.867446	H	2	YLD124_chi.LOD1	0.045471
	4450	C	19.223456	33.005402	-5.344937	C	2	YLD124_chi.LOD1	-0.266625
	4451	H	19.163887	31.911383	-5.291217	H	2	YLD124_chi.LOD1	0.041283
	4452	H	19.064334	33.390119	-4.327252	H	2	YLD124_chi.LOD1	0.059445
	4453	H	18.393732	33.357520	-5.967819	H	2	YLD124_chi.LOD1	0.054675
	4454	C	21.030198	34.181657	-8.884302	C	2	YLD124_chi.LOD1	-0.410828
	4455	H	20.238791	34.159513	-9.641880	H	2	YLD124_chi.LOD1	0.093855
	4456	H	20.992010	35.161863	-8.393275	H	2	YLD124_chi.LOD1	0.090546
	4457	H	21.992852	34.121505	-9.406393	H	2	YLD124_chi.LOD1	0.070213
	4458	C	19.480632	31.720628	-8.202195	C	2	YLD124_chi.LOD1	-0.460074
	4459	H	19.155171	31.061788	-7.387807	H	2	YLD124_chi.LOD1	0.099819
	4460	H	18.607228	32.292470	-8.534879	H	2	YLD124_chi.LOD1	0.10243
	4461	H	19.791839	31.074446	-9.031837	H	2	YLD124_chi.LOD1	0.086844
	4462	C	23.214839	27.142613	-4.092462	C	2	YLD124_chi.LOD1	-0.477029
	4463	H	24.269456	27.199615	-4.383508	H	2	YLD124_chi.LOD1	0.107463
	4464	H	22.978996	28.052481	-3.528505	H	2	YLD124_chi.LOD1	0.106999
	4465	H	23.100357	26.290374	-3.412313	H	2	YLD124_chi.LOD1	0.090486
	4466	C	20.373665	26.935195	-5.018709	C	2	YLD124_chi.LOD1	-0.470103
	4467	H	19.705195	26.890872	-5.887253	H	2	YLD124_chi.LOD1	0.112461
	4468	H	20.146061	26.074972	-4.378696	H	2	YLD124_chi.LOD1	0.098066
	4469	H	20.111228	27.838237	-4.454709	H	2	YLD124_chi.LOD1	0.083138
	4470	Si	22.126300	26.999000	-5.551280	Si	2	YLD124_chi.LOD1	0.770043
	4471	Si	20.847800	32.820100	-7.671360	Si	2	YLD124_chi.LOD1	0.73989
	4472	H	24.357376	28.643112	-6.009565	H	2	YLD124_chi.LOD1	-0.017464
	4473	H	25.083744	31.162237	-8.712875	H	2	YLD124_chi.LOD1	0.058354
	4474	H	24.185413	32.426360	-7.210809	H	2	YLD124_chi.LOD1	-0.04034
	4475	H	23.420405	33.258513	-8.577904	H	2	YLD124_chi.LOD1	-0.007901
	4476	H	23.963076	31.691537	-9.950560	H	2	YLD124_chi.LOD1	0.028132
	4477	H	23.726572	28.085817	-8.376313	H	2	YLD124_chi.LOD1	-0.011538
	4478	H	25.058813	29.181007	-8.074451	H	2	YLD124_chi.LOD1	0.020652
	4479	H	23.452025	30.122803	-6.367495	H	2	YLD124_chi.LOD1	-0.064856
	4480	C	14.013152	28.616646	-13.146174	C	2	YLD124_chi.LOD1	-0.299384
	4481	H	14.083083	29.639488	-12.757027	H	2	YLD124_chi.LOD1	0.066854
	4482	H	12.975606	28.451131	-13.460121	H	2	YLD124_chi.LOD1	0.072315
	4483	H	14.227204	27.928989	-12.322080	H	2	YLD124_chi.LOD1	0.027971
	4484	C	14.629657	29.436033	-15.433343	C	2	YLD124_chi.LOD1	-0.427943
	4485	H	14.733548	30.464154	-15.065884	H	2	YLD124_chi.LOD1	0.089807
	4486	H	15.284746	29.323226	-16.305860	H	2	YLD124_chi.LOD1	0.091303
	4487	H	13.594475	29.307978	-15.771928	H	2	YLD124_chi.LOD1	0.089757
	4488	C	13.272336	22.834730	-18.205098	C	2	YLD124_chi.LOD1	-0.158763
	4489	C	11.840574	24.778634	-18.204265	C	2	YLD124_chi.LOD1	-0.147279
	4490	C	13.977267	23.347440	-19.290348	C	2	YLD124_chi.LOD1	-0.065518
	4491	H	13.557540	21.872879	-17.789736	H	2	YLD124_chi.LOD1	0.080042
	4492	C	12.555722	25.294186	-19.287459	C	2	YLD124_chi.LOD1	-0.090746
	4493	H	11.006856	25.346853	-17.812981	H	2	YLD124_chi.LOD1	0.09871
	4494	C	13.622688	24.583731	-19.834105	C	2	YLD124_chi.LOD1	-0.09866
	4495	H	14.803276	22.780373	-19.709834	H	2	YLD124_chi.LOD1	0.104949
	4496	H	14.172167	24.986687	-20.680283	H	2	YLD124_chi.LOD1	0.102095
	4497	H	12.265046	26.252933	-19.707603	H	2	YLD124_chi.LOD1	0.105434
	4498	F	10.955579	24.887038	-15.270516	F	2	YLD124_chi.LOD1	-0.19867
	4499	F	9.731483	23.147542	-14.850984	F	2	YLD124_chi.LOD1	-0.154403
	4500	F	9.452650	24.246180	-16.708214	F	2	YLD124_chi.LOD1	-0.186491
	4501	C	19.344315	20.438189	-13.812252	C	3	YLD124_chi.LOD1	-0.150166
	4502	C	18.368574	19.864439	-14.572383	C	3	YLD124_chi.LOD1	-0.190723
	4503	H	17.847866	20.475387	-15.308130	H	3	YLD124_chi.LOD1	0.123134
	4504	H	19.844277	19.821764	-13.066993	H	3	YLD124_chi.LOD1	0.111619
	4505	N	21.186391	25.838191	-13.777732	N	3	YLD124_chi.LOD1	-0.506176
	4506	C	20.757355	24.522104	-13.817802	C	3	YLD124_chi.LOD1	0.404469
	4507	C	19.774581	24.087282	-14.747746	C	3	YLD124_chi.LOD1	-0.281203
	4508	C	19.314749	22.783490	-14.755645	C	3	YLD124_chi.LOD1	-0.112562
	4509	C	19.801253	21.811264	-13.854847	C	3	YLD124_chi.LOD1	0.131862
	4510	C	20.795490	22.241097	-12.952085	C	3	YLD124_chi.LOD1	-0.140167
	4511	C	21.266450	23.543042	-12.927588	C	3	YLD124_chi.LOD1	-0.26473
	4512	H	19.365684	24.777366	-15.475123	H	3	YLD124_chi.LOD1	0.177954
	4513	H	18.558911	22.513241	-15.487209	H	3	YLD124_chi.LOD1	0.098859
	4514	H	21.209583	21.525053	-12.245394	H	3	YLD124_chi.LOD1	0.103807
	4515	H	22.036272	23.797858	-12.209924	H	3	YLD124_chi.LOD1	0.161189
	4516	C	17.914150	18.503717	-14.478714	C	3	YLD124_chi.LOD1	0.100982
	4517	C	16.868118	18.085919	-15.269889	C	3	YLD124_chi.LOD1	-0.303623
	4518	C	18.542736	17.535830	-13.498316	C	3	YLD124_chi.LOD1	0.096207
	4519	H	16.437707	18.794060	-15.976402	H	3	YLD124_chi.LOD1	0.124941
	4520	C	18.327215	16.047245	-13.858297	C	3	YLD124_chi.LOD1	0.409462
	4521	H	19.618892	17.730055	-13.416420	H	3	YLD124_chi.LOD1	-0.020765
	4522	C	16.829915	15.825517	-14.176179	C	3	YLD124_chi.LOD1	-0.014279
	4523	H	16.249421	15.965852	-13.251149	H	3	YLD124_chi.LOD1	-0.02177
	4524	C	16.291545	16.781853	-15.218994	C	3	YLD124_chi.LOD1	0.179445
	4525	C	15.271092	16.604634	-16.100053	C	3	YLD124_chi.LOD1	-0.27725
	4526	H	14.958786	17.385758	-16.792991	H	3	YLD124_chi.LOD1	0.132087
	4527	C	14.560232	15.384609	-16.159196	C	3	YLD124_chi.LOD1	0.141075
	4528	C	13.517078	15.165670	-17.035804	C	3	YLD124_chi.LOD1	-0.327608
	4529	H	14.839866	14.593949	-15.472675	H	3	YLD124_chi.LOD1	-0.027316
	4530	C	12.742788	13.991330	-17.156247	C	3	YLD124_chi.LOD1	0.260653
	4531	C	11.650434	13.826231	-18.000372	C	3	YLD124_chi.LOD1	-0.287606
	4532	C	12.920139	12.671743	-16.400199	C	3	YLD124_chi.LOD1	-0.056548
	4533	C	11.098399	12.511452	-17.811971	C	3	YLD124_chi.LOD1	0.509074
	4534	C	11.179203	14.836217	-18.877001	C	3	YLD124_chi.LOD1	0.396907
	4535	O	11.803467	11.858621	-16.857142	O	3	YLD124_chi.LOD1	-0.366332
	4536	C	12.868436	12.687466	-14.835634	C	3	YLD124_chi.LOD1	0.253806
	4537	C	14.216260	11.786959	-16.856928	C	3	YLD124_chi.LOD1	0.598114
	4538	C	10.027679	11.869147	-18.393653	C	3	YLD124_chi.LOD1	-0.43234
	4539	N	10.864006	15.726349	-19.558797	N	3	YLD124_chi.LOD1	-0.430249
	4540	C	9.221184	12.482943	-19.394923	C	3	YLD124_chi.LOD1	0.437474
	4541	C	9.692411	10.540392	-17.996757	C	3	YLD124_chi.LOD1	0.49223
	4542	N	8.536108	12.946580	-20.214843	N	3	YLD124_chi.LOD1	-0.451871
	4543	N	9.406235	9.456654	-17.681079	N	3	YLD124_chi.LOD1	-0.482758
	4544	H	13.231243	15.977921	-17.701907	H	3	YLD124_chi.LOD1	0.157364
	4545	H	16.675897	14.784871	-14.480006	H	3	YLD124_chi.LOD1	0.040059
	4546	H	18.124834	17.730753	-12.498289	H	3	YLD124_chi.LOD1	-0.024244
	4547	C	20.742856	26.819013	-14.703733	C	3	YLD124_chi.LOD1	0.240322
	4548	C	22.218483	26.289638	-12.896578	C	3	YLD124_chi.LOD1	0.113854
	4549	C	23.577281	26.235134	-13.322394	C	3	YLD124_chi.LOD1	0.29958
	4550	C	21.343464	26.882027	-15.994601	C	3	YLD124_chi.LOD1	0.285774
	4551	O	21.240900	25.726100	-16.679800	O	3	YLD124_chi.LOD1	-0.61175
	4552	O	23.925800	25.016000	-13.778200	O	3	YLD124_chi.LOD1	-0.599726
	4553	C	26.708982	24.571011	-13.342385	C	3	YLD124_chi.LOD1	0.275329
	4554	C	18.936610	25.838332	-18.563389	C	3	YLD124_chi.LOD1	0.358728
	4555	C	18.783141	26.879714	-19.694046	C	3	YLD124_chi.LOD1	-0.337707
	4556	H	19.159033	26.505153	-20.654306	H	3	YLD124_chi.LOD1	0.059176
	4557	H	17.722983	27.133340	-19.837659	H	3	YLD124_chi.LOD1	0.075606
	4558	H	19.310993	27.814699	-19.469246	H	3	YLD124_chi.LOD1	0.056098
	4559	C	27.029331	25.705775	-12.344466	C	3	YLD124_chi.LOD1	-0.311529
	4560	H	28.038744	26.100399	-12.529167	H	3	YLD124_chi.LOD1	0.071087
	4561	H	26.331861	26.547761	-12.436334	H	3	YLD124_chi.LOD1	0.058721
	4562	H	27.003212	25.361149	-11.303202	H	3	YLD124_chi.LOD1	0.056179
	4563	C	18.340943	26.414231	-17.260246	C	3	YLD124_chi.LOD1	-0.279876
	4564	H	18.445543	25.714725	-16.422379	H	3	YLD124_chi.LOD1	0.048405
	4565	H	18.822343	27.355622	-16.969818	H	3	YLD124_chi.LOD1	0.047411
	4566	H	17.268601	26.621648	-17.387773	H	3	YLD124_chi.LOD1	0.054899
	4567	C	18.151205	24.565721	-18.948464	C	3	YLD124_chi.LOD1	-0.273001
	4568	H	17.091925	24.807356	-19.118460	H	3	YLD124_chi.LOD1	0.0526
	4569	H	18.529412	24.105729	-19.869880	H	3	YLD124_chi.LOD1	0.034813
	4570	H	18.184758	23.808291	-18.156052	H	3	YLD124_chi.LOD1	0.061699
	4571	C	27.744069	23.438004	-13.170919	C	3	YLD124_chi.LOD1	-0.202774
	4572	H	27.740995	23.028425	-12.153157	H	3	YLD124_chi.LOD1	0.027959
	4573	H	27.556736	22.612095	-13.866117	H	3	YLD124_chi.LOD1	0.030756
	4574	H	28.758053	23.815691	-13.366628	H	3	YLD124_chi.LOD1	0.045471
	4575	C	26.804109	25.121279	-14.782120	C	3	YLD124_chi.LOD1	-0.266625
	4576	H	26.112748	25.956599	-14.948163	H	3	YLD124_chi.LOD1	0.041283
	4577	H	27.818993	25.494611	-14.981226	H	3	YLD124_chi.LOD1	0.059445
	4578	H	26.581885	24.347560	-15.525348	H	3	YLD124_chi.LOD1	0.054675
	4579	C	24.538276	23.841338	-11.223583	C	3	YLD124_chi.LOD1	-0.410828
	4580	H	25.437874	23.724593	-10.608901	H	3	YLD124_chi.LOD1	0.093855
	4581	H	24.027948	24.754930	-10.894516	H	3	YLD124_chi.LOD1	0.090546
	4582	H	23.869780	23.001477	-10.998534	H	3	YLD124_chi.LOD1	0.070213
	4583	C	24.693671	22.243592	-13.737094	C	3	YLD124_chi.LOD1	-0.460074
	4584	H	23.703505	22.149455	-14.199624	H	3	YLD124_chi.LOD1	0.099819
	4585	H	25.441355	22.023310	-14.507134	H	3	YLD124_chi.LOD1	0.10243
	4586	H	24.764512	21.462575	-12.970477	H	3	YLD124_chi.LOD1	0.086844
	4587	C	21.866203	26.566325	-19.249849	C	3	YLD124_chi.LOD1	-0.477029
	4588	H	22.604804	26.011136	-19.838413	H	3	YLD124_chi.LOD1	0.107463
	4589	H	21.262826	27.155858	-19.949790	H	3	YLD124_chi.LOD1	0.106999
	4590	H	22.409456	27.267951	-18.605942	H	3	YLD124_chi.LOD1	0.090486
	4591	C	21.166109	23.700710	-18.723917	C	3	YLD124_chi.LOD1	-0.470103
	4592	H	21.853264	23.251815	-17.996252	H	3	YLD124_chi.LOD1	0.112461
	4593	H	20.271807	23.068772	-18.771680	H	3	YLD124_chi.LOD1	0.098066
	4594	H	21.654089	23.647781	-19.704492	H	3	YLD124_chi.LOD1	0.083138
	4595	Si	20.800800	25.441900	-18.283100	Si	3	YLD124_chi.LOD1	0.770043
	4596	Si	24.940200	23.908100	-13.010300	Si	3	YLD124_chi.LOD1	0.73989
	4597	H	20.924053	27.705398	-16.590888	H	3	YLD124_chi.LOD1	-0.017464
	4598	H	21.969550	27.305567	-12.577003	H	3	YLD124_chi.LOD1	0.058354
	4599	H	23.678588	26.971613	-14.132320	H	3	YLD124_chi.LOD1	-0.04034
	4600	H	24.261974	26.535214	-12.514952	H	3	YLD124_chi.LOD1	-0.007901
	4601	H	22.174915	25.665285	-11.998022	H	3	YLD124_chi.LOD1	0.028132
	4602	H	19.682328	26.627049	-14.895890	H	3	YLD124_chi.LOD1	-0.011538
	4603	H	20.793911	27.797666	-14.218051	H	3	YLD124_chi.LOD1	0.020652
	4604	H	22.404710	27.109586	-15.822824	H	3	YLD124_chi.LOD1	-0.064856
	4605	C	19.189185	15.731779	-15.069737	C	3	YLD124_chi.LOD1	-0.299384
	4606	H	20.253608	15.860608	-14.839659	H	3	YLD124_chi.LOD1	0.066854
	4607	H	19.031934	14.679518	-15.335214	H	3	YLD124_chi.LOD1	0.072315
	4608	H	18.961253	16.337310	-15.952461	H	3	YLD124_chi.LOD1	0.027971
	4609	C	18.717753	15.247654	-12.656029	C	3	YLD124_chi.LOD1	-0.427943
	4610	H	19.771830	15.397495	-12.392739	H	3	YLD124_chi.LOD1	0.089807
	4611	H	18.113696	15.482529	-11.771098	H	3	YLD124_chi.LOD1	0.091303
	4612	H	18.580806	14.183577	-12.883242	H	3	YLD124_chi.LOD1	0.089757
	4613	C	11.842776	13.489443	-14.312705	C	3	YLD124_chi.LOD1	-0.158763
	4614	C	13.717305	12.011968	-13.949505	C	3	YLD124_chi.LOD1	-0.147279
	4615	C	11.671941	13.619936	-12.937440	C	3	YLD124_chi.LOD1	-0.065518
	4616	H	11.171200	14.013517	-14.986023	H	3	YLD124_chi.LOD1	0.080042
	4617	C	13.548570	12.152271	-12.570236	C	3	YLD124_chi.LOD1	-0.090746
	4618	H	14.508234	11.369951	-14.314617	H	3	YLD124_chi.LOD1	0.09871
	4619	C	12.528793	12.953001	-12.059480	C	3	YLD124_chi.LOD1	-0.09866
	4620	H	10.869464	14.243026	-12.553234	H	3	YLD124_chi.LOD1	0.104949
	4621	H	12.398380	13.054295	-10.985679	H	3	YLD124_chi.LOD1	0.102095
	4622	H	14.215879	11.621545	-11.897006	H	3	YLD124_chi.LOD1	0.105434
	4623	F	14.889078	12.543788	-17.737046	F	3	YLD124_chi.LOD1	-0.19867
	4624	F	13.871032	10.647347	-17.477517	F	3	YLD124_chi.LOD1	-0.154403
	4625	F	15.064118	11.467725	-15.853454	F	3	YLD124_chi.LOD1	-0.186491
	4626	C	22.275936	-18.858884	-17.838508	C	4	YLD124_chi.LOD1	-0.150166
	4627	C	23.359041	-18.366949	-17.172219	C	4	YLD124_chi.LOD1	-0.190723
	4628	H	23.465268	-18.582257	-16.110109	H	4	YLD124_chi.LOD1	0.123134
	4629	H	22.171193	-18.620675	-18.895692	H	4	YLD124_chi.LOD1	0.111619
	4630	N	17.911923	-21.949739	-15.849420	N	4	YLD124_chi.LOD1	-0.506176
	4631	C	18.992519	-21.229536	-16.330444	C	4	YLD124_chi.LOD1	0.404469
	4632	C	20.082486	-20.872630	-15.491218	C	4	YLD124_chi.LOD1	-0.281203
	4633	C	21.138425	-20.114660	-15.962236	C	4	YLD124_chi.LOD1	-0.112562
	4634	C	21.201302	-19.665254	-17.299182	C	4	YLD124_chi.LOD1	0.131862
	4635	C	20.130611	-20.044720	-18.134569	C	4	YLD124_chi.LOD1	-0.140167
	4636	C	19.063476	-20.801142	-17.680134	C	4	YLD124_chi.LOD1	-0.26473
	4637	H	20.105299	-21.193232	-14.457205	H	4	YLD124_chi.LOD1	0.177954
	4638	H	21.939358	-19.869775	-15.270825	H	4	YLD124_chi.LOD1	0.098859
	4639	H	20.139604	-19.731582	-19.176426	H	4	YLD124_chi.LOD1	0.103807
	4640	H	18.280633	-21.059655	-18.382221	H	4	YLD124_chi.LOD1	0.161189
	4641	C	24.391149	-17.537416	-17.732102	C	4	YLD124_chi.LOD1	0.100982
	4642	C	25.389814	-17.059073	-16.914451	C	4	YLD124_chi.LOD1	-0.303623
	4643	C	24.375422	-17.152197	-19.196501	C	4	YLD124_chi.LOD1	0.096207
	4644	H	25.389373	-17.357205	-15.867075	H	4	YLD124_chi.LOD1	0.124941
	4645	C	25.754436	-16.721179	-19.748287	C	4	YLD124_chi.LOD1	0.409462
	4646	H	23.995091	-17.985132	-19.799917	H	4	YLD124_chi.LOD1	-0.020765
	4647	C	26.378710	-15.693380	-18.775645	C	4	YLD124_chi.LOD1	-0.014279
	4648	H	25.777012	-14.771697	-18.804098	H	4	YLD124_chi.LOD1	-0.02177
	4649	C	26.427923	-16.178927	-17.342569	C	4	YLD124_chi.LOD1	0.179445
	4650	C	27.300533	-15.847172	-16.353944	C	4	YLD124_chi.LOD1	-0.27725
	4651	H	27.216852	-16.250477	-15.344888	H	4	YLD124_chi.LOD1	0.132087
	4652	C	28.369576	-14.954033	-16.592124	C	4	YLD124_chi.LOD1	0.141075
	4653	C	29.274384	-14.589348	-15.615971	C	4	YLD124_chi.LOD1	-0.327608
	4654	H	28.470051	-14.526519	-17.582975	H	4	YLD124_chi.LOD1	-0.027316
	4655	C	30.359574	-13.697260	-15.756139	C	4	YLD124_chi.LOD1	0.260653
	4656	C	31.211650	-13.293803	-14.734262	C	4	YLD124_chi.LOD1	-0.287606
	4657	C	30.827294	-12.985017	-17.028270	C	4	YLD124_chi.LOD1	-0.056548
	4658	C	32.165059	-12.350878	-15.254634	C	4	YLD124_chi.LOD1	0.509074
	4659	C	31.102450	-13.753058	-13.397188	C	4	YLD124_chi.LOD1	0.396907
	4660	O	31.917736	-12.138092	-16.569381	O	4	YLD124_chi.LOD1	-0.366332
	4661	C	29.817129	-12.062802	-17.789750	C	4	YLD124_chi.LOD1	0.253806
	4662	C	31.561173	-13.948398	-18.126033	C	4	YLD124_chi.LOD1	0.598114
	4663	C	33.200556	-11.663773	-14.660508	C	4	YLD124_chi.LOD1	-0.43234
	4664	N	30.930753	-14.182370	-12.328197	N	4	YLD124_chi.LOD1	-0.430249
	4665	C	33.524122	-11.813465	-13.281154	C	4	YLD124_chi.LOD1	0.437474
	4666	C	33.993364	-10.762846	-15.432071	C	4	YLD124_chi.LOD1	0.49223
	4667	N	33.822359	-11.904958	-12.158995	N	4	YLD124_chi.LOD1	-0.451871
	4668	N	34.647313	-10.022931	-16.049251	N	4	YLD124_chi.LOD1	-0.482758
	4669	H	29.145708	-15.007402	-14.619065	H	4	YLD124_chi.LOD1	0.157364
	4670	H	27.376911	-15.419121	-19.132509	H	4	YLD124_chi.LOD1	0.040059
	4671	H	23.657111	-16.328815	-19.333482	H	4	YLD124_chi.LOD1	-0.024244
	4672	C	17.839160	-22.454837	-14.523808	C	4	YLD124_chi.LOD1	0.240322
	4673	C	16.834816	-22.374983	-16.688512	C	4	YLD124_chi.LOD1	0.113854
	4674	C	16.952363	-23.637049	-17.333981	C	4	YLD124_chi.LOD1	0.29958
	4675	C	18.183633	-23.809569	-14.236517	C	4	YLD124_chi.LOD1	0.285774
	4676	O	17.227200	-24.703000	-14.557600	O	4	YLD124_chi.LOD1	-0.61175
	4677	O	18.144700	-24.204000	-17.064500	O	4	YLD124_chi.LOD1	-0.599726
	4678	C	19.225639	-26.415663	-18.512492	C	4	YLD124_chi.LOD1	0.275329
	4679	C	15.502258	-26.852536	-13.440128	C	4	YLD124_chi.LOD1	0.358728
	4680	C	14.279543	-27.067913	-12.520890	C	4	YLD124_chi.LOD1	-0.337707
	4681	H	13.351874	-26.696369	-12.973741	H	4	YLD124_chi.LOD1	0.059176
	4682	H	14.136310	-28.139657	-12.321555	H	4	YLD124_chi.LOD1	0.075606
	4683	H	14.400223	-26.572396	-11.549676	H	4	YLD124_chi.LOD1	0.056098
	4684	C	17.783652	-26.734237	-18.965638	C	4	YLD124_chi.LOD1	-0.311529
	4685	H	17.676834	-27.810286	-19.164296	H	4	YLD124_chi.LOD1	0.071087
	4686	H	17.041447	-26.471941	-18.201324	H	4	YLD124_chi.LOD1	0.058721
	4687	H	17.513924	-26.207306	-19.889365	H	4	YLD124_chi.LOD1	0.056179
	4688	C	16.756565	-27.444838	-12.761487	C	4	YLD124_chi.LOD1	-0.279876
	4689	H	17.655842	-27.297145	-13.371208	H	4	YLD124_chi.LOD1	0.048405
	4690	H	16.942988	-26.994714	-11.779170	H	4	YLD124_chi.LOD1	0.047411
	4691	H	16.634110	-28.526657	-12.606976	H	4	YLD124_chi.LOD1	0.054899
	4692	C	15.260832	-27.595389	-14.772254	C	4	YLD124_chi.LOD1	-0.273001
	4693	H	15.092494	-28.666300	-14.587397	H	4	YLD124_chi.LOD1	0.0526
	4694	H	14.380064	-27.217479	-15.306176	H	4	YLD124_chi.LOD1	0.034813
	4695	H	16.122141	-27.517311	-15.446639	H	4	YLD124_chi.LOD1	0.061699
	4696	C	20.210839	-26.834018	-19.625538	C	4	YLD124_chi.LOD1	-0.202774
	4697	H	20.010859	-26.312094	-20.569575	H	4	YLD124_chi.LOD1	0.027959
	4698	H	21.249448	-26.630123	-19.342274	H	4	YLD124_chi.LOD1	0.030756
	4699	H	20.124631	-27.911921	-19.825053	H	4	YLD124_chi.LOD1	0.045471
	4700	C	19.544159	-27.221438	-17.234231	C	4	YLD124_chi.LOD1	-0.266625
	4701	H	18.847821	-26.989095	-16.419098	H	4	YLD124_chi.LOD1	0.041283
	4702	H	19.463517	-28.299788	-17.433397	H	4	YLD124_chi.LOD1	0.059445
	4703	H	20.560359	-27.023917	-16.875435	H	4	YLD124_chi.LOD1	0.054675
	4704	C	19.161195	-23.523418	-19.669165	C	4	YLD124_chi.LOD1	-0.410828
	4705	H	19.538671	-24.035192	-20.561544	H	4	YLD124_chi.LOD1	0.093855
	4706	H	18.102938	-23.292059	-19.842180	H	4	YLD124_chi.LOD1	0.090546
	4707	H	19.689583	-22.565948	-19.585749	H	4	YLD124_chi.LOD1	0.070213
	4708	C	21.002556	-24.126603	-17.402162	C	4	YLD124_chi.LOD1	-0.460074
	4709	H	21.104096	-23.047915	-17.230851	H	4	YLD124_chi.LOD1	0.099819
	4710	H	21.137842	-24.629362	-16.438083	H	4	YLD124_chi.LOD1	0.10243
	4711	H	21.831867	-24.426736	-18.053982	H	4	YLD124_chi.LOD1	0.086844
	4712	C	15.972916	-24.062256	-12.166142	C	4	YLD124_chi.LOD1	-0.477029
	4713	H	15.095005	-24.182606	-11.521967	H	4	YLD124_chi.LOD1	0.107463
	4714	H	16.841216	-24.439576	-11.613680	H	4	YLD124_chi.LOD1	0.106999
	4715	H	16.123650	-22.988780	-12.330296	H	4	YLD124_chi.LOD1	0.090486
	4716	C	14.387881	-24.262024	-14.702821	C	4	YLD124_chi.LOD1	-0.470103
	4717	H	14.429261	-23.165924	-14.696665	H	4	YLD124_chi.LOD1	0.112461
	4718	H	14.375347	-24.589227	-15.748854	H	4	YLD124_chi.LOD1	0.098066
	4719	H	13.427287	-24.551622	-14.260277	H	4	YLD124_chi.LOD1	0.083138
	4720	Si	15.776900	-24.969400	-13.738600	Si	4	YLD124_chi.LOD1	0.770043
	4721	Si	19.384400	-24.537400	-18.159000	Si	4	YLD124_chi.LOD1	0.73989
	4722	H	19.085699	-23.999911	-14.836060	H	4	YLD124_chi.LOD1	-0.017464
	4723	H	15.919989	-22.379227	-16.089111	H	4	YLD124_chi.LOD1	0.058354
	4724	H	16.145471	-24.303962	-16.998128	H	4	YLD124_chi.LOD1	-0.04034
	4725	H	16.843999	-23.508362	-18.421415	H	4	YLD124_chi.LOD1	-0.007901
	4726	H	16.696079	-21.606193	-17.455867	H	4	YLD124_chi.LOD1	0.028132
	4727	H	18.423078	-21.778929	-13.890813	H	4	YLD124_chi.LOD1	-0.011538
	4728	H	16.802618	-22.373353	-14.184405	H	4	YLD124_chi.LOD1	0.020652
	4729	H	18.459496	-23.936509	-13.180430	H	4	YLD124_chi.LOD1	-0.064856
	4730	C	26.623278	-17.963876	-19.852060	C	4	YLD124_chi.LOD1	-0.299384
	4731	H	26.198331	-18.683088	-20.562471	H	4	YLD124_chi.LOD1	0.066854
	4732	H	27.606002	-17.661715	-20.233390	H	4	YLD124_chi.LOD1	0.072315
	4733	H	26.778476	-18.483389	-18.901355	H	4	YLD124_chi.LOD1	0.027971
	4734	C	25.510567	-16.082467	-21.078758	C	4	YLD124_chi.LOD1	-0.427943
	4735	H	25.050316	-16.781625	-21.787419	H	4	YLD124_chi.LOD1	0.089807
	4736	H	24.868145	-15.195579	-21.016477	H	4	YLD124_chi.LOD1	0.091303
	4737	H	26.474026	-15.770280	-21.499384	H	4	YLD124_chi.LOD1	0.089757
	4738	C	29.056215	-11.240550	-16.945052	C	4	YLD124_chi.LOD1	-0.158763
	4739	C	29.606530	-11.991116	-19.172721	C	4	YLD124_chi.LOD1	-0.147279
	4740	C	28.102453	-10.371589	-17.467367	C	4	YLD124_chi.LOD1	-0.065518
	4741	H	29.212687	-11.278247	-15.871218	H	4	YLD124_chi.LOD1	0.080042
	4742	C	28.642514	-11.124587	-19.692663	C	4	YLD124_chi.LOD1	-0.090746
	4743	H	30.186340	-12.596076	-19.857489	H	4	YLD124_chi.LOD1	0.09871
	4744	C	27.889370	-10.313320	-18.846139	C	4	YLD124_chi.LOD1	-0.09866
	4745	H	27.526432	-9.741023	-16.796240	H	4	YLD124_chi.LOD1	0.104949
	4746	H	27.144614	-9.636911	-19.256173	H	4	YLD124_chi.LOD1	0.102095
	4747	H	28.491786	-11.081589	-20.767671	H	4	YLD124_chi.LOD1	0.105434
	4748	F	30.865901	-15.094290	-18.186120	F	4	YLD124_chi.LOD1	-0.19867
	4749	F	32.802971	-14.244941	-17.710065	F	4	YLD124_chi.LOD1	-0.154403
	4750	F	31.655125	-13.455817	-19.381528	F	4	YLD124_chi.LOD1	-0.186491
	4751	C	2.019341	24.264406	2.710948	C	5	YLD124_chi.LOD1	-0.150166
	4752	C	2.136521	24.984265	3.862960	C	5	YLD124_chi.LOD1	-0.190723
	4753	H	1.457598	25.818456	4.032980	H	5	YLD124_chi.LOD1	0.123134
	4754	H	2.716349	23.444865	2.543956	H	5	YLD124_chi.LOD1	0.111619
	4755	N	-1.577144	25.002100	-1.656610	N	5	YLD124_chi.LOD1	-0.506176
	4756	C	-0.731996	24.809102	-0.576684	C	5	YLD124_chi.LOD1	0.404469
	4757	C	-0.814092	25.620232	0.587378	C	5	YLD124_chi.LOD1	-0.281203
	4758	C	0.060402	25.455429	1.645434	C	5	YLD124_chi.LOD1	-0.112562
	4759	C	1.070823	24.469368	1.636590	C	5	YLD124_chi.LOD1	0.131862
	4760	C	1.130834	23.649702	0.490820	C	5	YLD124_chi.LOD1	-0.140167
	4761	C	0.265462	23.801486	-0.579487	C	5	YLD124_chi.LOD1	-0.26473
	4762	H	-1.572594	26.388905	0.666794	H	5	YLD124_chi.LOD1	0.177954
	4763	H	-0.049569	26.109796	2.505214	H	5	YLD124_chi.LOD1	0.098859
	4764	H	1.885839	22.867908	0.442135	H	5	YLD124_chi.LOD1	0.103807
	4765	H	0.367947	23.129882	-1.422721	H	5	YLD124_chi.LOD1	0.161189
	4766	C	3.115639	24.775322	4.894712	C	5	YLD124_chi.LOD1	0.100982
	4767	C	3.152667	25.630516	5.972657	C	5	YLD124_chi.LOD1	-0.303623
	4768	C	4.128424	23.653957	4.795148	C	5	YLD124_chi.LOD1	0.096207
	4769	H	2.408358	26.423280	6.031039	H	5	YLD124_chi.LOD1	0.124941
	4770	C	4.744636	23.240711	6.152142	C	5	YLD124_chi.LOD1	0.409462
	4771	H	3.669382	22.773480	4.329765	H	5	YLD124_chi.LOD1	-0.020765
	4772	C	5.204528	24.515801	6.896970	C	5	YLD124_chi.LOD1	-0.014279
	4773	H	6.045471	24.962205	6.343901	H	5	YLD124_chi.LOD1	-0.02177
	4774	C	4.116405	25.560855	7.022405	C	5	YLD124_chi.LOD1	0.179445
	4775	C	3.946624	26.511964	7.979263	C	5	YLD124_chi.LOD1	-0.27725
	4776	H	3.127520	27.230189	7.946492	H	5	YLD124_chi.LOD1	0.132087
	4777	C	4.834563	26.613864	9.074006	C	5	YLD124_chi.LOD1	0.141075
	4778	C	4.699339	27.566034	10.063771	C	5	YLD124_chi.LOD1	-0.327608
	4779	H	5.666623	25.921321	9.126068	H	5	YLD124_chi.LOD1	-0.027316
	4780	C	5.541266	27.752918	11.181509	C	5	YLD124_chi.LOD1	0.260653
	4781	C	5.420335	28.767843	12.124029	C	5	YLD124_chi.LOD1	-0.287606
	4782	C	6.749988	26.908550	11.594310	C	5	YLD124_chi.LOD1	-0.056548
	4783	C	6.483294	28.652352	13.086143	C	5	YLD124_chi.LOD1	0.509074
	4784	C	4.401753	29.753576	12.086221	C	5	YLD124_chi.LOD1	0.396907
	4785	O	7.277571	27.605394	12.757490	O	5	YLD124_chi.LOD1	-0.366332
	4786	C	7.932596	26.741110	10.582230	C	5	YLD124_chi.LOD1	0.253806
	4787	C	6.384472	25.433883	12.197133	C	5	YLD124_chi.LOD1	0.598114
	4788	C	6.807683	29.401164	14.195829	C	5	YLD124_chi.LOD1	-0.43234
	4789	N	3.533345	30.520766	11.968676	N	5	YLD124_chi.LOD1	-0.430249
	4790	C	6.038861	30.527433	14.608324	C	5	YLD124_chi.LOD1	0.437474
	4791	C	7.950512	29.057936	14.977915	C	5	YLD124_chi.LOD1	0.49223
	4792	N	5.439826	31.454420	14.980359	N	5	YLD124_chi.LOD1	-0.451871
	4793	N	8.881512	28.790417	15.624218	N	5	YLD124_chi.LOD1	-0.482758
	4794	H	3.873317	28.270703	9.984545	H	5	YLD124_chi.LOD1	0.157364
	4795	H	5.597557	24.237220	7.880279	H	5	YLD124_chi.LOD1	0.040059
	4796	H	4.933280	23.969630	4.113055	H	5	YLD124_chi.LOD1	-0.024244
	4797	C	-2.634534	25.951452	-1.704719	C	5	YLD124_chi.LOD1	0.240322
	4798	C	-1.557522	24.159876	-2.812325	C	5	YLD124_chi.LOD1	0.113854
	4799	C	-2.392047	23.007785	-2.814234	C	5	YLD124_chi.LOD1	0.29958
	4800	C	-4.003694	25.570751	-1.850344	C	5	YLD124_chi.LOD1	0.285774
	4801	O	-4.666980	25.368100	-0.694818	O	5	YLD124_chi.LOD1	-0.61175
	4802	O	-2.853980	22.745200	-1.576010	O	5	YLD124_chi.LOD1	-0.599726
	4803	C	-3.397762	21.742246	1.026841	C	5	YLD124_chi.LOD1	0.275329
	4804	C	-6.718924	27.525695	-0.739296	C	5	YLD124_chi.LOD1	0.358728
	4805	C	-8.028433	27.658980	0.069306	C	5	YLD124_chi.LOD1	-0.337707
	4806	H	-7.882091	28.215175	1.003609	H	5	YLD124_chi.LOD1	0.059176
	4807	H	-8.784537	28.201770	-0.515989	H	5	YLD124_chi.LOD1	0.075606
	4808	H	-8.457870	26.682333	0.324460	H	5	YLD124_chi.LOD1	0.056098
	4809	C	-2.239402	21.682326	2.047021	C	5	YLD124_chi.LOD1	-0.311529
	4810	H	-2.606710	21.927963	3.053751	H	5	YLD124_chi.LOD1	0.071087
	4811	H	-1.787559	20.684055	2.103022	H	5	YLD124_chi.LOD1	0.058721
	4812	H	-1.442211	22.398158	1.810905	H	5	YLD124_chi.LOD1	0.056179
	4813	C	-7.012659	26.780577	-2.059591	C	5	YLD124_chi.LOD1	-0.279876
	4814	H	-6.105029	26.644989	-2.659670	H	5	YLD124_chi.LOD1	0.048405
	4815	H	-7.446364	25.788995	-1.883587	H	5	YLD124_chi.LOD1	0.047411
	4816	H	-7.731499	27.347987	-2.668291	H	5	YLD124_chi.LOD1	0.054899
	4817	C	-6.193586	28.938982	-1.072941	C	5	YLD124_chi.LOD1	-0.273001
	4818	H	-6.948756	29.503459	-1.639019	H	5	YLD124_chi.LOD1	0.0526
	4819	H	-5.963447	29.521208	-0.172003	H	5	YLD124_chi.LOD1	0.034813
	4820	H	-5.288444	28.904054	-1.691199	H	5	YLD124_chi.LOD1	0.061699
	4821	C	-3.996929	23.165446	1.023246	C	5	YLD124_chi.LOD1	-0.202774
	4822	H	-3.250806	23.925347	0.759703	H	5	YLD124_chi.LOD1	0.027959
	4823	H	-4.828478	23.251076	0.314928	H	5	YLD124_chi.LOD1	0.030756
	4824	H	-4.381322	23.419351	2.021688	H	5	YLD124_chi.LOD1	0.045471
	4825	C	-4.494355	20.739302	1.446680	C	5	YLD124_chi.LOD1	-0.266625
	4826	H	-4.111659	19.712729	1.501479	H	5	YLD124_chi.LOD1	0.041283
	4827	H	-4.883541	20.994894	2.442781	H	5	YLD124_chi.LOD1	0.059445
	4828	H	-5.337688	20.747283	0.747296	H	5	YLD124_chi.LOD1	0.054675
	4829	C	-3.760661	20.013880	-1.531816	C	5	YLD124_chi.LOD1	-0.410828
	4830	H	-4.801854	20.048953	-1.192069	H	5	YLD124_chi.LOD1	0.093855
	4831	H	-3.763121	20.136793	-2.621887	H	5	YLD124_chi.LOD1	0.090546
	4832	H	-3.375871	19.008262	-1.323084	H	5	YLD124_chi.LOD1	0.070213
	4833	C	-0.991132	20.739048	-0.694343	C	5	YLD124_chi.LOD1	-0.460074
	4834	H	-0.339817	21.432459	-1.240415	H	5	YLD124_chi.LOD1	0.099819
	4835	H	-0.605681	20.658070	0.328098	H	5	YLD124_chi.LOD1	0.10243
	4836	H	-0.883442	19.756792	-1.170034	H	5	YLD124_chi.LOD1	0.086844
	4837	C	-6.216274	25.556543	1.599223	C	5	YLD124_chi.LOD1	-0.477029
	4838	H	-5.474540	25.042936	2.220683	H	5	YLD124_chi.LOD1	0.107463
	4839	H	-6.797974	26.213826	2.255831	H	5	YLD124_chi.LOD1	0.106999
	4840	H	-6.899101	24.798894	1.197063	H	5	YLD124_chi.LOD1	0.090486
	4841	C	-4.158262	27.644225	0.992884	C	5	YLD124_chi.LOD1	-0.470103
	4842	H	-4.028760	28.536874	0.368711	H	5	YLD124_chi.LOD1	0.112461
	4843	H	-4.404143	27.979474	2.007061	H	5	YLD124_chi.LOD1	0.098066
	4844	H	-3.185014	27.141590	1.043854	H	5	YLD124_chi.LOD1	0.083138
	4845	Si	-5.419890	26.526400	0.272969	Si	5	YLD124_chi.LOD1	0.770043
	4846	Si	-2.736800	21.297500	-0.717755	Si	5	YLD124_chi.LOD1	0.73989
	4847	H	-4.544700	26.304821	-2.465045	H	5	YLD124_chi.LOD1	-0.017464
	4848	H	-1.800830	24.774946	-3.683358	H	5	YLD124_chi.LOD1	0.058354
	4849	H	-3.239934	23.179523	-3.492644	H	5	YLD124_chi.LOD1	-0.04034
	4850	H	-1.837398	22.135827	-3.192214	H	5	YLD124_chi.LOD1	-0.007901
	4851	H	-0.525005	23.823132	-2.952440	H	5	YLD124_chi.LOD1	0.028132
	4852	H	-2.619678	26.487038	-0.750035	H	5	YLD124_chi.LOD1	-0.011538
	4853	H	-2.380898	26.687554	-2.472883	H	5	YLD124_chi.LOD1	0.020652
	4854	H	-3.967949	24.630771	-2.418405	H	5	YLD124_chi.LOD1	-0.064856
	4855	C	3.675029	22.507909	6.945125	C	5	YLD124_chi.LOD1	-0.299384
	4856	H	3.366682	21.588208	6.433654	H	5	YLD124_chi.LOD1	0.066854
	4857	H	4.104274	22.221685	7.912742	H	5	YLD124_chi.LOD1	0.072315
	4858	H	2.775935	23.100743	7.140061	H	5	YLD124_chi.LOD1	0.027971
	4859	C	5.924737	22.373300	5.848172	C	5	YLD124_chi.LOD1	-0.427943
	4860	H	5.633919	21.467348	5.302712	H	5	YLD124_chi.LOD1	0.089807
	4861	H	6.693805	22.887848	5.259166	H	5	YLD124_chi.LOD1	0.091303
	4862	H	6.381150	22.058485	6.794333	H	5	YLD124_chi.LOD1	0.089757
	4863	C	8.287849	27.930063	9.927410	C	5	YLD124_chi.LOD1	-0.158763
	4864	C	8.632128	25.566312	10.277921	C	5	YLD124_chi.LOD1	-0.147279
	4865	C	9.312876	27.945456	8.985790	C	5	YLD124_chi.LOD1	-0.065518
	4866	H	7.760755	28.851042	10.157614	H	5	YLD124_chi.LOD1	0.080042
	4867	C	9.654053	25.583596	9.326128	C	5	YLD124_chi.LOD1	-0.090746
	4868	H	8.399436	24.633717	10.775097	H	5	YLD124_chi.LOD1	0.09871
	4869	C	9.998594	26.768494	8.678602	C	5	YLD124_chi.LOD1	-0.09866
	4870	H	9.574523	28.877276	8.492760	H	5	YLD124_chi.LOD1	0.104949
	4871	H	10.798103	26.777615	7.943060	H	5	YLD124_chi.LOD1	0.102095
	4872	H	10.186315	24.663486	9.101839	H	5	YLD124_chi.LOD1	0.105434
	4873	F	5.059459	25.289461	12.043623	F	5	YLD124_chi.LOD1	-0.19867
	4874	F	6.657956	25.330204	13.507662	F	5	YLD124_chi.LOD1	-0.154403
	4875	F	6.988301	24.400508	11.568437	F	5	YLD124_chi.LOD1	-0.186491
	4876	C	26.059646	25.411263	3.885770	C	6	YLD124_chi.LOD1	-0.150166
	4877	C	26.623041	26.627432	3.635618	C	6	YLD124_chi.LOD1	-0.190723
	4878	H	27.011988	27.208367	4.470455	H	6	YLD124_chi.LOD1	0.123134
	4879	H	25.657245	24.848627	3.045017	H	6	YLD124_chi.LOD1	0.111619
	4880	N	25.269347	22.756338	8.873882	N	6	YLD124_chi.LOD1	-0.506176
	4881	C	25.497036	23.392357	7.664998	C	6	YLD124_chi.LOD1	0.404469
	4882	C	26.183019	24.635031	7.595003	C	6	YLD124_chi.LOD1	-0.281203
	4883	C	26.369120	25.290313	6.391942	C	6	YLD124_chi.LOD1	-0.112562
	4884	C	25.903114	24.760020	5.169251	C	6	YLD124_chi.LOD1	0.131862
	4885	C	25.246827	23.514065	5.240850	C	6	YLD124_chi.LOD1	-0.140167
	4886	C	25.048935	22.844302	6.436559	C	6	YLD124_chi.LOD1	-0.26473
	4887	H	26.577313	25.094185	8.492889	H	6	YLD124_chi.LOD1	0.177954
	4888	H	26.896621	26.239580	6.404013	H	6	YLD124_chi.LOD1	0.098859
	4889	H	24.879395	23.059430	4.323297	H	6	YLD124_chi.LOD1	0.103807
	4890	H	24.542003	21.887732	6.412222	H	6	YLD124_chi.LOD1	0.161189
	4891	C	26.729939	27.261408	2.349737	C	6	YLD124_chi.LOD1	0.100982
	4892	C	27.264977	28.526740	2.263915	C	6	YLD124_chi.LOD1	-0.303623
	4893	C	26.229594	26.574879	1.096167	C	6	YLD124_chi.LOD1	0.096207
	4894	H	27.629462	28.998197	3.175375	H	6	YLD124_chi.LOD1	0.124941
	4895	C	26.856295	27.116052	-0.210087	C	6	YLD124_chi.LOD1	0.409462
	4896	H	26.414793	25.495880	1.159459	H	6	YLD124_chi.LOD1	-0.020765
	4897	C	26.776405	28.660570	-0.195854	C	6	YLD124_chi.LOD1	-0.014279
	4898	H	25.718452	28.958664	-0.260858	H	6	YLD124_chi.LOD1	-0.02177
	4899	C	27.363213	29.278639	1.055358	C	6	YLD124_chi.LOD1	0.179445
	4900	C	27.931785	30.502542	1.222123	C	6	YLD124_chi.LOD1	-0.27725
	4901	H	28.300046	30.845921	2.188729	H	6	YLD124_chi.LOD1	0.132087
	4902	C	28.073823	31.396334	0.136655	C	6	YLD124_chi.LOD1	0.141075
	4903	C	28.641693	32.647642	0.264319	C	6	YLD124_chi.LOD1	-0.327608
	4904	H	27.704455	31.087300	-0.834280	H	6	YLD124_chi.LOD1	-0.027316
	4905	C	28.811652	33.609815	-0.754721	C	6	YLD124_chi.LOD1	0.260653
	4906	C	29.322506	34.891020	-0.579836	C	6	YLD124_chi.LOD1	-0.287606
	4907	C	28.474333	33.467969	-2.241485	C	6	YLD124_chi.LOD1	-0.056548
	4908	C	29.302649	35.586721	-1.838601	C	6	YLD124_chi.LOD1	0.509074
	4909	C	29.761456	35.394456	0.670957	C	6	YLD124_chi.LOD1	0.396907
	4910	O	28.772948	34.781784	-2.790704	O	6	YLD124_chi.LOD1	-0.366332
	4911	C	27.003335	33.121543	-2.650217	C	6	YLD124_chi.LOD1	0.253806
	4912	C	29.477806	32.492530	-3.086249	C	6	YLD124_chi.LOD1	0.598114
	4913	C	29.689559	36.859925	-2.194417	C	6	YLD124_chi.LOD1	-0.43234
	4914	N	30.092618	35.719842	1.739127	N	6	YLD124_chi.LOD1	-0.430249
	4915	C	30.242684	37.779701	-1.257515	C	6	YLD124_chi.LOD1	0.437474
	4916	C	29.541396	37.298779	-3.543852	C	6	YLD124_chi.LOD1	0.49223
	4917	N	30.697858	38.562822	-0.525330	N	6	YLD124_chi.LOD1	-0.451871
	4918	N	29.424374	37.670871	-4.641071	N	6	YLD124_chi.LOD1	-0.482758
	4919	H	28.985201	32.953905	1.250906	H	6	YLD124_chi.LOD1	0.157364
	4920	H	27.261994	29.055202	-1.094432	H	6	YLD124_chi.LOD1	0.040059
	4921	H	25.135482	26.690057	1.047735	H	6	YLD124_chi.LOD1	-0.024244
	4922	C	25.771017	23.256862	10.104067	C	6	YLD124_chi.LOD1	0.240322
	4923	C	24.637562	21.477784	8.989603	C	6	YLD124_chi.LOD1	0.113854
	4924	C	25.375453	20.322861	9.387635	C	6	YLD124_chi.LOD1	0.29958
	4925	C	27.138647	23.005888	10.402331	C	6	YLD124_chi.LOD1	0.285774
	4926	O	27.753100	22.389400	9.373510	O	6	YLD124_chi.LOD1	-0.61175
	4927	O	25.704800	20.314000	10.694200	O	6	YLD124_chi.LOD1	-0.599726
	4928	C	26.309138	19.010084	13.156932	C	6	YLD124_chi.LOD1	0.275329
	4929	C	29.758003	22.247739	7.197563	C	6	YLD124_chi.LOD1	0.358728
	4930	C	28.437279	22.353985	6.403324	C	6	YLD124_chi.LOD1	-0.337707
	4931	H	27.857732	23.242682	6.682668	H	6	YLD124_chi.LOD1	0.059176
	4932	H	28.644884	22.427831	5.326137	H	6	YLD124_chi.LOD1	0.075606
	4933	H	27.795714	21.476157	6.548832	H	6	YLD124_chi.LOD1	0.056098
	4934	C	26.522108	20.195643	14.124014	C	6	YLD124_chi.LOD1	-0.311529
	4935	H	27.322303	19.962128	14.840894	H	6	YLD124_chi.LOD1	0.071087
	4936	H	26.817566	21.111952	13.597774	H	6	YLD124_chi.LOD1	0.058721
	4937	H	25.621095	20.420494	14.708221	H	6	YLD124_chi.LOD1	0.056179
	4938	C	30.540551	21.006927	6.715212	C	6	YLD124_chi.LOD1	-0.279876
	4939	H	31.479592	20.879645	7.266821	H	6	YLD124_chi.LOD1	0.048405
	4940	H	29.959138	20.084476	6.830777	H	6	YLD124_chi.LOD1	0.047411
	4941	H	30.792101	21.102906	5.649045	H	6	YLD124_chi.LOD1	0.054899
	4942	C	30.607074	23.508027	6.922913	C	6	YLD124_chi.LOD1	-0.273001
	4943	H	30.803858	23.608770	5.845653	H	6	YLD124_chi.LOD1	0.0526
	4944	H	30.104165	24.427738	7.246726	H	6	YLD124_chi.LOD1	0.034813
	4945	H	31.581259	23.462841	7.424577	H	6	YLD124_chi.LOD1	0.061699
	4946	C	25.921924	17.755812	13.970185	C	6	YLD124_chi.LOD1	-0.202774
	4947	H	25.004711	17.909707	14.552112	H	6	YLD124_chi.LOD1	0.027959
	4948	H	25.766421	16.886700	13.321353	H	6	YLD124_chi.LOD1	0.030756
	4949	H	26.720426	17.502200	14.682356	H	6	YLD124_chi.LOD1	0.045471
	4950	C	27.626915	18.729401	12.402371	C	6	YLD124_chi.LOD1	-0.266625
	4951	H	27.968574	19.603829	11.834961	H	6	YLD124_chi.LOD1	0.041283
	4952	H	28.425230	18.470484	13.112769	H	6	YLD124_chi.LOD1	0.059445
	4953	H	27.520580	17.893930	11.701591	H	6	YLD124_chi.LOD1	0.054675
	4954	C	23.603418	20.479258	12.654536	C	6	YLD124_chi.LOD1	-0.410828
	4955	H	23.547925	21.467536	12.184463	H	6	YLD124_chi.LOD1	0.093855
	4956	H	22.618396	20.007442	12.552110	H	6	YLD124_chi.LOD1	0.090546
	4957	H	23.777245	20.629778	13.726929	H	6	YLD124_chi.LOD1	0.070213
	4958	C	24.158050	17.939867	11.191399	C	6	YLD124_chi.LOD1	-0.460074
	4959	H	24.101723	17.999897	10.097577	H	6	YLD124_chi.LOD1	0.099819
	4960	H	24.726772	17.038303	11.444888	H	6	YLD124_chi.LOD1	0.10243
	4961	H	23.133599	17.801807	11.557658	H	6	YLD124_chi.LOD1	0.086844
	4962	C	30.276302	23.321393	10.053549	C	6	YLD124_chi.LOD1	-0.477029
	4963	H	29.963317	23.311311	11.103365	H	6	YLD124_chi.LOD1	0.107463
	4964	H	31.354757	23.126770	10.029336	H	6	YLD124_chi.LOD1	0.106999
	4965	H	30.111831	24.333086	9.664390	H	6	YLD124_chi.LOD1	0.090486
	4966	C	29.794072	20.387750	9.694046	C	6	YLD124_chi.LOD1	-0.470103
	4967	H	30.827101	20.122919	9.437330	H	6	YLD124_chi.LOD1	0.112461
	4968	H	29.683808	20.285693	10.779785	H	6	YLD124_chi.LOD1	0.098066
	4969	H	29.143152	19.637496	9.229422	H	6	YLD124_chi.LOD1	0.083138
	4970	Si	29.381600	22.064000	9.077810	Si	6	YLD124_chi.LOD1	0.770043
	4971	Si	24.919700	19.445000	11.908600	Si	6	YLD124_chi.LOD1	0.73989
	4972	H	27.650962	23.952641	10.627265	H	6	YLD124_chi.LOD1	-0.017464
	4973	H	23.855849	21.559156	9.750202	H	6	YLD124_chi.LOD1	0.058354
	4974	H	24.841526	19.394757	9.138257	H	6	YLD124_chi.LOD1	-0.04034
	4975	H	26.291061	20.351697	8.778008	H	6	YLD124_chi.LOD1	-0.007901
	4976	H	24.124994	21.285432	8.041239	H	6	YLD124_chi.LOD1	0.028132
	4977	H	25.611557	24.339944	10.104819	H	6	YLD124_chi.LOD1	-0.011538
	4978	H	25.156366	22.856189	10.915189	H	6	YLD124_chi.LOD1	0.020652
	4979	H	27.209231	22.374291	11.298788	H	6	YLD124_chi.LOD1	-0.064856
	4980	C	28.302117	26.650198	-0.260430	C	6	YLD124_chi.LOD1	-0.299384
	4981	H	28.361953	25.555920	-0.299233	H	6	YLD124_chi.LOD1	0.066854
	4982	H	28.753949	27.040184	-1.180331	H	6	YLD124_chi.LOD1	0.072315
	4983	H	28.912433	26.989712	0.582224	H	6	YLD124_chi.LOD1	0.027971
	4984	C	26.041865	26.572996	-1.341129	C	6	YLD124_chi.LOD1	-0.427943
	4985	H	26.062915	25.476780	-1.367952	H	6	YLD124_chi.LOD1	0.089807
	4986	H	24.991920	26.888077	-1.302462	H	6	YLD124_chi.LOD1	0.091303
	4987	H	26.466786	26.935948	-2.284712	H	6	YLD124_chi.LOD1	0.089757
	4988	C	26.034117	33.836330	-1.930289	C	6	YLD124_chi.LOD1	-0.158763
	4989	C	26.583882	32.200446	-3.618585	C	6	YLD124_chi.LOD1	-0.147279
	4990	C	24.677563	33.632170	-2.166187	C	6	YLD124_chi.LOD1	-0.065518
	4991	H	26.342674	34.559783	-1.181668	H	6	YLD124_chi.LOD1	0.080042
	4992	C	25.221877	31.991661	-3.846385	C	6	YLD124_chi.LOD1	-0.090746
	4993	H	27.301488	31.643541	-4.206770	H	6	YLD124_chi.LOD1	0.09871
	4994	C	24.265937	32.704101	-3.124865	C	6	YLD124_chi.LOD1	-0.09866
	4995	H	23.943434	34.198407	-1.600275	H	6	YLD124_chi.LOD1	0.104949
	4996	H	23.207736	32.541954	-3.309898	H	6	YLD124_chi.LOD1	0.102095
	4997	H	24.913764	31.273396	-4.600952	H	6	YLD124_chi.LOD1	0.105434
	4998	F	28.975532	31.254993	-3.213941	F	6	YLD124_chi.LOD1	-0.19867
	4999	F	30.617527	32.400596	-2.382250	F	6	YLD124_chi.LOD1	-0.154403
	5000	F	29.793413	32.939909	-4.322362	F	6	YLD124_chi.LOD1	-0.186491
	5001	C	-8.207630	-24.473423	-11.286105	C	7	YLD124_chi.LOD1	-0.150166
	5002	C	-8.091735	-25.831820	-11.305726	C	7	YLD124_chi.LOD1	-0.190723
	5003	H	-8.105740	-26.346845	-12.265033	H	7	YLD124_chi.LOD1	0.123134
	5004	H	-8.211475	-23.971914	-10.319757	H	7	YLD124_chi.LOD1	0.111619
	5005	N	-8.891208	-20.845605	-15.636521	N	7	YLD124_chi.LOD1	-0.506176
	5006	C	-8.689865	-21.730022	-14.590083	C	7	YLD124_chi.LOD1	0.404469
	5007	C	-8.505608	-23.121007	-14.815742	C	7	YLD124_chi.LOD1	-0.281203
	5008	C	-8.350315	-24.008311	-13.766954	C	7	YLD124_chi.LOD1	-0.112562
	5009	C	-8.352492	-23.585069	-12.420029	C	7	YLD124_chi.LOD1	0.131862
	5010	C	-8.508773	-22.200661	-12.202697	C	7	YLD124_chi.LOD1	-0.140167
	5011	C	-8.668146	-21.297368	-13.240061	C	7	YLD124_chi.LOD1	-0.26473
	5012	H	-8.482016	-23.513687	-15.824571	H	7	YLD124_chi.LOD1	0.177954
	5013	H	-8.218652	-25.060098	-14.003432	H	7	YLD124_chi.LOD1	0.098859
	5014	H	-8.505843	-21.824701	-11.181790	H	7	YLD124_chi.LOD1	0.103807
	5015	H	-8.776089	-20.247921	-12.995915	H	7	YLD124_chi.LOD1	0.161189
	5016	C	-7.985367	-26.688086	-10.155798	C	7	YLD124_chi.LOD1	0.100982
	5017	C	-7.944058	-28.052571	-10.332344	C	7	YLD124_chi.LOD1	-0.303623
	5018	C	-7.955955	-26.114498	-8.754642	C	7	YLD124_chi.LOD1	0.096207
	5019	H	-7.954684	-28.444218	-11.348405	H	7	YLD124_chi.LOD1	0.124941
	5020	C	-7.337908	-27.061987	-7.700031	C	7	YLD124_chi.LOD1	0.409462
	5021	H	-7.404480	-25.166671	-8.748306	H	7	YLD124_chi.LOD1	-0.020765
	5022	C	-7.978063	-28.461417	-7.854691	C	7	YLD124_chi.LOD1	-0.014279
	5023	H	-9.039479	-28.396164	-7.569234	H	7	YLD124_chi.LOD1	-0.02177
	5024	C	-7.903170	-29.000945	-9.267201	C	7	YLD124_chi.LOD1	0.179445
	5025	C	-7.863492	-30.292305	-9.691356	C	7	YLD124_chi.LOD1	-0.27725
	5026	H	-7.834176	-30.556694	-10.748281	H	7	YLD124_chi.LOD1	0.132087
	5027	C	-7.857583	-31.364120	-8.770237	C	7	YLD124_chi.LOD1	0.141075
	5028	C	-7.821176	-32.687701	-9.159282	C	7	YLD124_chi.LOD1	-0.327608
	5029	H	-7.899655	-31.131918	-7.712428	H	7	YLD124_chi.LOD1	-0.027316
	5030	C	-7.827243	-33.819980	-8.316067	C	7	YLD124_chi.LOD1	0.260653
	5031	C	-7.862589	-35.143599	-8.740124	C	7	YLD124_chi.LOD1	-0.287606
	5032	C	-7.804669	-33.847062	-6.785338	C	7	YLD124_chi.LOD1	-0.056548
	5033	C	-7.899436	-36.009753	-7.592385	C	7	YLD124_chi.LOD1	0.509074
	5034	C	-7.880527	-35.527855	-10.104907	C	7	YLD124_chi.LOD1	0.396907
	5035	O	-7.909922	-35.261945	-6.462924	O	7	YLD124_chi.LOD1	-0.366332
	5036	C	-8.942717	-33.110471	-6.002284	C	7	YLD124_chi.LOD1	0.253806
	5037	C	-6.373769	-33.436119	-6.110574	C	7	YLD124_chi.LOD1	0.598114
	5038	C	-7.945536	-37.381292	-7.473618	C	7	YLD124_chi.LOD1	-0.43234
	5039	N	-7.897467	-35.744730	-11.249113	N	7	YLD124_chi.LOD1	-0.430249
	5040	C	-7.952831	-38.245905	-8.605922	C	7	YLD124_chi.LOD1	0.437474
	5041	C	-7.988496	-37.983589	-6.180979	C	7	YLD124_chi.LOD1	0.49223
	5042	N	-7.961159	-38.988732	-9.502971	N	7	YLD124_chi.LOD1	-0.451871
	5043	N	-8.025862	-38.488579	-5.132350	N	7	YLD124_chi.LOD1	-0.482758
	5044	H	-7.804600	-32.905863	-10.225714	H	7	YLD124_chi.LOD1	0.157364
	5045	H	-7.511406	-29.152047	-7.144595	H	7	YLD124_chi.LOD1	0.040059
	5046	H	-8.986572	-25.864973	-8.457558	H	7	YLD124_chi.LOD1	-0.024244
	5047	C	-8.851859	-21.224308	-17.005364	C	7	YLD124_chi.LOD1	0.240322
	5048	C	-9.014984	-19.435336	-15.435287	C	7	YLD124_chi.LOD1	0.113854
	5049	C	-7.826572	-18.657031	-15.344197	C	7	YLD124_chi.LOD1	0.29958
	5050	C	-7.712685	-20.937129	-17.815599	C	7	YLD124_chi.LOD1	0.285774
	5051	O	-7.641330	-19.658200	-18.234700	O	7	YLD124_chi.LOD1	-0.61175
	5052	O	-6.822340	-19.353000	-14.776100	O	7	YLD124_chi.LOD1	-0.599726
	5053	C	-4.321269	-18.032292	-14.396761	C	7	YLD124_chi.LOD1	0.275329
	5054	C	-9.593145	-18.474515	-20.147393	C	7	YLD124_chi.LOD1	0.358728
	5055	C	-9.596018	-17.039569	-20.719529	C	7	YLD124_chi.LOD1	-0.337707
	5056	H	-9.069573	-16.976895	-21.680059	H	7	YLD124_chi.LOD1	0.059176
	5057	H	-10.627356	-16.699958	-20.892414	H	7	YLD124_chi.LOD1	0.075606
	5058	H	-9.130106	-16.320538	-20.034490	H	7	YLD124_chi.LOD1	0.056098
	5059	C	-3.875990	-18.901698	-15.593429	C	7	YLD124_chi.LOD1	-0.311529
	5060	H	-3.018292	-18.438070	-16.101523	H	7	YLD124_chi.LOD1	0.071087
	5061	H	-3.562402	-19.906009	-15.282195	H	7	YLD124_chi.LOD1	0.058721
	5062	H	-4.670859	-19.015536	-16.341029	H	7	YLD124_chi.LOD1	0.056179
	5063	C	-10.393641	-18.494801	-18.826993	C	7	YLD124_chi.LOD1	-0.279876
	5064	H	-10.402177	-19.492782	-18.372865	H	7	YLD124_chi.LOD1	0.048405
	5065	H	-9.983784	-17.796358	-18.087733	H	7	YLD124_chi.LOD1	0.047411
	5066	H	-11.438419	-18.203181	-19.007544	H	7	YLD124_chi.LOD1	0.054899
	5067	C	-10.281373	-19.415739	-21.159875	C	7	YLD124_chi.LOD1	-0.273001
	5068	H	-11.307546	-19.075497	-21.361282	H	7	YLD124_chi.LOD1	0.0526
	5069	H	-9.756619	-19.446894	-22.122841	H	7	YLD124_chi.LOD1	0.034813
	5070	H	-10.351849	-20.442798	-20.781820	H	7	YLD124_chi.LOD1	0.061699
	5071	C	-4.721861	-16.631722	-14.909053	C	7	YLD124_chi.LOD1	-0.202774
	5072	H	-5.539815	-16.678883	-15.638662	H	7	YLD124_chi.LOD1	0.027959
	5073	H	-5.040132	-15.978284	-14.089149	H	7	YLD124_chi.LOD1	0.030756
	5074	H	-3.868351	-16.150121	-15.407746	H	7	YLD124_chi.LOD1	0.045471
	5075	C	-3.141588	-17.885462	-13.411129	C	7	YLD124_chi.LOD1	-0.266625
	5076	H	-2.791557	-18.857738	-13.043068	H	7	YLD124_chi.LOD1	0.041283
	5077	H	-2.288994	-17.399244	-13.906795	H	7	YLD124_chi.LOD1	0.059445
	5078	H	-3.414598	-17.275332	-12.543017	H	7	YLD124_chi.LOD1	0.054675
	5079	C	-6.697946	-17.690599	-12.430657	C	7	YLD124_chi.LOD1	-0.410828
	5080	H	-6.024559	-17.217469	-11.707165	H	7	YLD124_chi.LOD1	0.093855
	5081	H	-7.174988	-16.891615	-13.011539	H	7	YLD124_chi.LOD1	0.090546
	5082	H	-7.491753	-18.195018	-11.866447	H	7	YLD124_chi.LOD1	0.070213
	5083	C	-5.303464	-20.326436	-12.531553	C	7	YLD124_chi.LOD1	-0.460074
	5084	H	-5.707612	-20.282190	-11.512764	H	7	YLD124_chi.LOD1	0.099819
	5085	H	-5.650301	-21.261517	-12.985256	H	7	YLD124_chi.LOD1	0.10243
	5086	H	-4.212092	-20.384593	-12.440814	H	7	YLD124_chi.LOD1	0.086844
	5087	C	-6.633220	-17.622728	-19.826633	C	7	YLD124_chi.LOD1	-0.477029
	5088	H	-6.795897	-16.956144	-18.972598	H	7	YLD124_chi.LOD1	0.107463
	5089	H	-5.595832	-17.973430	-19.778000	H	7	YLD124_chi.LOD1	0.106999
	5090	H	-6.740994	-17.028032	-20.741368	H	7	YLD124_chi.LOD1	0.090486
	5091	C	-7.253307	-20.302252	-21.014316	C	7	YLD124_chi.LOD1	-0.470103
	5092	H	-7.754710	-21.259303	-20.825018	H	7	YLD124_chi.LOD1	0.112461
	5093	H	-7.459349	-20.017652	-22.052561	H	7	YLD124_chi.LOD1	0.098066
	5094	H	-6.174414	-20.481347	-20.934517	H	7	YLD124_chi.LOD1	0.083138
	5095	Si	-7.784990	-19.039100	-19.797200	Si	7	YLD124_chi.LOD1	0.770043
	5096	Si	-5.808230	-18.866700	-13.518600	Si	7	YLD124_chi.LOD1	0.73989
	5097	H	-6.849919	-21.165885	-17.173175	H	7	YLD124_chi.LOD1	-0.017464
	5098	H	-9.655910	-19.034822	-16.225862	H	7	YLD124_chi.LOD1	0.058354
	5099	H	-7.538544	-18.364959	-16.364187	H	7	YLD124_chi.LOD1	-0.04034
	5100	H	-8.002645	-17.733212	-14.772908	H	7	YLD124_chi.LOD1	-0.007901
	5101	H	-9.556164	-19.285392	-14.495202	H	7	YLD124_chi.LOD1	0.028132
	5102	H	-9.079192	-22.294403	-17.046741	H	7	YLD124_chi.LOD1	-0.011538
	5103	H	-9.671839	-20.716783	-17.521412	H	7	YLD124_chi.LOD1	0.020652
	5104	H	-7.660842	-21.607682	-18.684624	H	7	YLD124_chi.LOD1	-0.064856
	5105	C	-5.839954	-27.122566	-7.949796	C	7	YLD124_chi.LOD1	-0.299384
	5106	H	-5.378080	-26.137394	-7.813272	H	7	YLD124_chi.LOD1	0.066854
	5107	H	-5.398392	-27.801528	-7.210544	H	7	YLD124_chi.LOD1	0.072315
	5108	H	-5.565326	-27.486683	-8.944693	H	7	YLD124_chi.LOD1	0.027971
	5109	C	-7.670280	-26.494180	-6.356795	C	7	YLD124_chi.LOD1	-0.427943
	5110	H	-7.245303	-25.492099	-6.222338	H	7	YLD124_chi.LOD1	0.089807
	5111	H	-8.750009	-26.428424	-6.175094	H	7	YLD124_chi.LOD1	0.091303
	5112	H	-7.238939	-27.143474	-5.585432	H	7	YLD124_chi.LOD1	0.089757
	5113	C	-10.222479	-33.317281	-6.538979	C	7	YLD124_chi.LOD1	-0.158763
	5114	C	-8.807175	-32.294949	-4.871509	C	7	YLD124_chi.LOD1	-0.147279
	5115	C	-11.340547	-32.718987	-5.964928	C	7	YLD124_chi.LOD1	-0.065518
	5116	H	-10.345747	-33.953023	-7.410565	H	7	YLD124_chi.LOD1	0.080042
	5117	C	-9.930037	-31.689083	-4.303489	C	7	YLD124_chi.LOD1	-0.090746
	5118	H	-7.839202	-32.126269	-4.418035	H	7	YLD124_chi.LOD1	0.09871
	5119	C	-11.197132	-31.897862	-4.844661	C	7	YLD124_chi.LOD1	-0.09866
	5120	H	-12.322827	-32.894844	-6.393908	H	7	YLD124_chi.LOD1	0.104949
	5121	H	-12.068053	-31.428667	-4.395582	H	7	YLD124_chi.LOD1	0.102095
	5122	H	-9.807148	-31.059371	-3.426808	H	7	YLD124_chi.LOD1	0.105434
	5123	F	-5.937661	-34.339847	-5.219975	F	7	YLD124_chi.LOD1	-0.19867
	5124	F	-6.392928	-32.239088	-5.502479	F	7	YLD124_chi.LOD1	-0.154403
	5125	F	-5.468453	-33.373406	-7.112673	F	7	YLD124_chi.LOD1	-0.186491
	5126	C	-0.030813	29.395741	-14.893069	C	1	YLD124.LOD1	-0.158041
	5127	C	0.896388	29.534737	-13.903095	C	1	YLD124.LOD1	-0.174247
	5128	H	0.654718	29.175317	-12.904040	H	1	YLD124.LOD1	0.11023
	5129	H	0.214884	29.771096	-15.885089	H	1	YLD124.LOD1	0.116594
	5130	N	-5.239378	27.076457	-14.650535	N	1	YLD124.LOD1	-0.477879
	5131	C	-3.967896	27.622455	-14.703139	C	1	YLD124.LOD1	0.383639
	5132	C	-3.130577	27.670262	-13.555755	C	1	YLD124.LOD1	-0.278193
	5133	C	-1.872413	28.241156	-13.603190	C	1	YLD124.LOD1	-0.102205
	5134	C	-1.345264	28.797774	-14.788789	C	1	YLD124.LOD1	0.126725
	5135	C	-2.175759	28.738943	-15.926837	C	1	YLD124.LOD1	-0.148338
	5136	C	-3.438611	28.171356	-15.898466	C	1	YLD124.LOD1	-0.248652
	5137	H	-3.467134	27.254464	-12.614307	H	1	YLD124.LOD1	0.176041
	5138	H	-1.281650	28.250002	-12.691952	H	1	YLD124.LOD1	0.098595
	5139	H	-1.811561	29.150135	-16.865926	H	1	YLD124.LOD1	0.105176
	5140	H	-4.014425	28.152455	-16.815360	H	1	YLD124.LOD1	0.157607
	5141	C	2.194977	30.137222	-14.034006	C	1	YLD124.LOD1	0.13089
	5142	C	3.005429	30.237205	-12.925798	C	1	YLD124.LOD1	-0.298955
	5143	C	2.676301	30.681488	-15.362728	C	1	YLD124.LOD1	0.000678
	5144	H	2.645132	29.830141	-11.982198	H	1	YLD124.LOD1	0.128536
	5145	C	4.215333	30.782819	-15.479690	C	1	YLD124.LOD1	0.312314
	5146	H	2.297263	30.061131	-16.183555	H	1	YLD124.LOD1	0.009572
	5147	C	4.763864	31.482930	-14.214327	C	1	YLD124.LOD1	0.132423
	5148	H	4.421056	32.529309	-14.215304	H	1	YLD124.LOD1	-0.011706
	5149	C	4.299254	30.838480	-12.925728	C	1	YLD124.LOD1	0.094029
	5150	C	4.926890	30.780197	-11.719822	C	1	YLD124.LOD1	-0.194272
	5151	H	4.470833	30.307549	-10.850065	H	1	YLD124.LOD1	0.118653
	5152	C	6.216094	31.329910	-11.539034	C	1	YLD124.LOD1	0.029031
	5153	C	6.901671	31.262556	-10.343247	C	1	YLD124.LOD1	-0.298661
	5154	H	6.688309	31.816845	-12.384237	H	1	YLD124.LOD1	0.063317
	5155	C	8.203011	31.745598	-10.085959	C	1	YLD124.LOD1	0.24754
	5156	C	8.906552	31.584322	-8.897568	C	1	YLD124.LOD1	-0.281071
	5157	C	9.118681	32.519022	-11.038977	C	1	YLD124.LOD1	-0.098074
	5158	C	10.216971	32.160040	-9.039446	C	1	YLD124.LOD1	0.526995
	5159	C	8.379852	30.921964	-7.759875	C	1	YLD124.LOD1	0.389724
	5160	O	10.359790	32.652925	-10.293768	O	1	YLD124.LOD1	-0.351072
	5161	C	8.688788	34.068280	-11.294929	C	1	YLD124.LOD1	0.617997
	5162	C	9.475966	31.879036	-12.420256	C	1	YLD124.LOD1	0.253109
	5163	C	11.280375	32.257887	-8.169583	C	1	YLD124.LOD1	-0.451385
	5164	N	7.864379	30.358767	-6.880310	N	1	YLD124.LOD1	-0.428829
	5165	F	8.454635	34.613748	-10.091844	F	1	YLD124.LOD1	-0.200469
	5166	F	9.600246	34.829547	-11.920993	F	1	YLD124.LOD1	-0.158364
	5167	F	7.541174	34.130841	-12.006371	F	1	YLD124.LOD1	-0.193377
	5168	C	8.700678	30.746621	-12.711164	C	1	YLD124.LOD1	-0.158716
	5169	C	10.485972	32.256272	-13.314274	C	1	YLD124.LOD1	-0.162688
	5170	C	11.225938	31.754720	-6.837805	C	1	YLD124.LOD1	0.447489
	5171	C	12.492149	32.881063	-8.592452	C	1	YLD124.LOD1	0.491336
	5172	H	7.919181	30.437016	-12.023688	H	1	YLD124.LOD1	0.085247
	5173	C	8.922522	30.011046	-13.871755	C	1	YLD124.LOD1	-0.074329
	5174	C	10.699658	31.521215	-14.482959	C	1	YLD124.LOD1	-0.055824
	5175	H	11.116839	33.112697	-13.114898	H	1	YLD124.LOD1	0.099228
	5176	N	11.224664	31.357449	-5.742945	N	1	YLD124.LOD1	-0.454587
	5177	N	13.487904	33.384982	-8.924967	N	1	YLD124.LOD1	-0.481156
	5178	H	8.313502	29.135378	-14.076856	H	1	YLD124.LOD1	0.111202
	5179	C	9.922389	30.399635	-14.766029	C	1	YLD124.LOD1	-0.106678
	5180	H	11.488060	31.826265	-15.165358	H	1	YLD124.LOD1	0.095951
	5181	H	10.096663	29.827899	-15.673272	H	1	YLD124.LOD1	0.103827
	5182	H	6.419793	30.761841	-9.505250	H	1	YLD124.LOD1	0.159396
	5183	H	5.856898	31.518121	-14.267185	H	1	YLD124.LOD1	-0.052081
	5184	H	2.236476	31.679915	-15.511635	H	1	YLD124.LOD1	-0.003289
	5185	C	-5.753856	26.435400	-13.494267	C	1	YLD124.LOD1	0.198954
	5186	C	-6.099511	26.957735	-15.785475	C	1	YLD124.LOD1	0.115128
	5187	C	-6.305664	25.688833	-16.406596	C	1	YLD124.LOD1	0.306486
	5188	C	-5.482264	25.050370	-13.292715	C	1	YLD124.LOD1	0.28632
	5189	O	-4.176970	24.757600	-13.451300	O	1	YLD124.LOD1	-0.606883
	5190	O	-5.174420	25.160100	-16.912100	O	1	YLD124.LOD1	-0.600198
	5191	C	-5.422578	23.993694	-19.481333	C	1	YLD124.LOD1	0.267162
	5192	C	-3.461570	22.940864	-11.205270	C	1	YLD124.LOD1	0.369124
	5193	C	-2.674107	21.651264	-10.882612	C	1	YLD124.LOD1	-0.324271
	5194	H	-1.599198	21.764481	-11.071168	H	1	YLD124.LOD1	0.053925
	5195	H	-2.790898	21.390045	-9.820995	H	1	YLD124.LOD1	0.070181
	5196	H	-3.028275	20.793525	-11.467139	H	1	YLD124.LOD1	0.052098
	5197	C	-4.989223	24.092568	-20.960816	C	1	YLD124.LOD1	-0.316887
	5198	H	-5.457080	23.289063	-21.547475	H	1	YLD124.LOD1	0.07213
	5199	H	-5.289841	25.043707	-21.417676	H	1	YLD124.LOD1	0.059956
	5200	H	-3.903527	23.990985	-21.081657	H	1	YLD124.LOD1	0.057948
	5201	C	-4.954404	22.714789	-10.882142	C	1	YLD124.LOD1	-0.260833
	5202	H	-5.557279	23.602983	-11.105123	H	1	YLD124.LOD1	0.041714
	5203	H	-5.373913	21.877294	-11.452098	H	1	YLD124.LOD1	0.041636
	5204	H	-5.086009	22.482321	-9.815412	H	1	YLD124.LOD1	0.048242
	5205	C	-2.926455	24.084426	-10.316319	C	1	YLD124.LOD1	-0.256632
	5206	H	-3.021472	23.818840	-9.253386	H	1	YLD124.LOD1	0.046696
	5207	H	-1.866269	24.295040	-10.503358	H	1	YLD124.LOD1	0.030906
	5208	H	-3.485809	25.015834	-10.465956	H	1	YLD124.LOD1	0.051975
	5209	C	-4.992340	22.621326	-18.918983	C	1	YLD124.LOD1	-0.203727
	5210	H	-3.907749	22.472171	-18.988677	H	1	YLD124.LOD1	0.027457
	5211	H	-5.280163	22.506927	-17.868024	H	1	YLD124.LOD1	0.031775
	5212	H	-5.469769	21.810014	-19.487101	H	1	YLD124.LOD1	0.046776
	5213	C	-6.960027	24.110940	-19.395786	C	1	YLD124.LOD1	-0.249027
	5214	H	-7.322539	25.056940	-19.816699	H	1	YLD124.LOD1	0.037596
	5215	H	-7.436584	23.298627	-19.963286	H	1	YLD124.LOD1	0.055765
	5216	H	-7.313083	24.046698	-18.360587	H	1	YLD124.LOD1	0.04836
	5217	C	-5.097127	27.066534	-19.068078	C	1	YLD124.LOD1	-0.409962
	5218	H	-6.186598	27.183951	-19.073325	H	1	YLD124.LOD1	0.090944
	5219	H	-4.680217	27.859208	-18.434768	H	1	YLD124.LOD1	0.090896
	5220	H	-4.737576	27.248179	-20.088260	H	1	YLD124.LOD1	0.069902
	5221	C	-2.767952	25.292818	-18.488482	C	1	YLD124.LOD1	-0.458602
	5222	H	-2.315284	26.073155	-17.864480	H	1	YLD124.LOD1	0.097974
	5223	H	-2.419571	24.323832	-18.113812	H	1	YLD124.LOD1	0.103309
	5224	H	-2.369979	25.420712	-19.502538	H	1	YLD124.LOD1	0.085827
	5225	C	-4.019651	22.078806	-14.135556	C	1	YLD124.LOD1	-0.493974
	5226	H	-5.098498	21.985933	-13.969212	H	1	YLD124.LOD1	0.11158
	5227	H	-3.869208	22.326442	-15.192665	H	1	YLD124.LOD1	0.113577
	5228	H	-3.566186	21.097179	-13.955623	H	1	YLD124.LOD1	0.09477
	5229	C	-1.528682	23.630832	-13.516008	C	1	YLD124.LOD1	-0.483575
	5230	H	-1.431810	23.896036	-14.575879	H	1	YLD124.LOD1	0.116965
	5231	H	-1.049843	24.423312	-12.929764	H	1	YLD124.LOD1	0.100121
	5232	H	-0.949722	22.713171	-13.357373	H	1	YLD124.LOD1	0.088084
	5233	Si	-3.290260	23.372600	-13.075800	Si	1	YLD124.LOD1	0.763339
	5234	Si	-4.597280	25.404800	-18.478700	Si	1	YLD124.LOD1	0.748472
	5235	H	-5.818738	24.713885	-12.301057	H	1	YLD124.LOD1	-0.009815
	5236	H	-7.063189	27.402503	-15.521494	H	1	YLD124.LOD1	0.057511
	5237	H	-6.701180	25.032382	-15.618216	H	1	YLD124.LOD1	-0.045737
	5238	H	-7.067053	25.749764	-17.198681	H	1	YLD124.LOD1	-0.011652
	5239	H	-5.676797	27.585990	-16.576512	H	1	YLD124.LOD1	0.023801
	5240	H	-5.323989	26.942636	-12.624048	H	1	YLD124.LOD1	-0.001966
	5241	H	-6.831245	26.617794	-13.454131	H	1	YLD124.LOD1	0.031172
	5242	H	-6.075727	24.508038	-14.041733	H	1	YLD124.LOD1	-0.066029
	5243	C	4.770440	29.367560	-15.596587	C	1	YLD124.LOD1	-0.185058
	5244	H	4.407569	28.877552	-16.508071	H	1	YLD124.LOD1	0.04722
	5245	H	5.862789	29.433697	-15.666426	H	1	YLD124.LOD1	0.027573
	5246	H	4.527955	28.720128	-14.748173	H	1	YLD124.LOD1	0.00699
	5247	C	4.509712	31.608949	-16.688670	C	1	YLD124.LOD1	-0.347891
	5248	H	4.116109	31.148304	-17.602921	H	1	YLD124.LOD1	0.075067
	5249	H	4.099571	32.623984	-16.620565	H	1	YLD124.LOD1	0.071859
	5250	H	5.597365	31.693028	-16.801233	H	1	YLD124.LOD1	0.077505
	5251	C	8.464404	18.725185	-4.804152	C	1	YLD124_chi.LOD1	-0.150166
	5252	C	9.493508	19.425737	-4.248066	C	1	YLD124_chi.LOD1	-0.190723
	5253	H	9.299764	20.423583	-3.857573	H	1	YLD124_chi.LOD1	0.123134
	5254	H	8.675021	17.736387	-5.208220	H	1	YLD124_chi.LOD1	0.111619
	5255	N	3.027099	20.282855	-5.555041	N	1	YLD124_chi.LOD1	-0.506176
	5256	C	4.339958	19.900016	-5.336868	C	1	YLD124_chi.LOD1	0.404469
	5257	C	5.258827	20.744812	-4.657376	C	1	YLD124_chi.LOD1	-0.281203
	5258	C	6.580585	20.379877	-4.480853	C	1	YLD124_chi.LOD1	-0.112562
	5259	C	7.087843	19.148910	-4.950702	C	1	YLD124_chi.LOD1	0.131862
	5260	C	6.165754	18.302865	-5.600473	C	1	YLD124_chi.LOD1	-0.140167
	5261	C	4.839133	18.652280	-5.788754	C	1	YLD124_chi.LOD1	-0.26473
	5262	H	4.935158	21.698908	-4.260604	H	1	YLD124_chi.LOD1	0.177954
	5263	H	7.235402	21.070755	-3.957964	H	1	YLD124_chi.LOD1	0.098859
	5264	H	6.506899	17.338346	-5.970510	H	1	YLD124_chi.LOD1	0.103807
	5265	H	4.188210	17.947623	-6.291103	H	1	YLD124_chi.LOD1	0.161189
	5266	C	10.859437	18.987935	-4.151077	C	1	YLD124_chi.LOD1	0.100982
	5267	C	11.804344	19.838045	-3.622722	C	1	YLD124_chi.LOD1	-0.303623
	5268	C	11.280073	17.623173	-4.654659	C	1	YLD124_chi.LOD1	0.096207
	5269	H	11.479250	20.810425	-3.255748	H	1	YLD124_chi.LOD1	0.124941
	5270	C	12.599908	17.104411	-4.037532	C	1	YLD124_chi.LOD1	0.409462
	5271	H	10.486053	16.891286	-4.463831	H	1	YLD124_chi.LOD1	-0.020765
	5272	C	13.662458	18.224888	-4.124932	C	1	YLD124_chi.LOD1	-0.014279
	5273	H	13.908728	18.394202	-5.184664	H	1	YLD124_chi.LOD1	-0.02177
	5274	C	13.196565	19.538774	-3.534565	C	1	YLD124_chi.LOD1	0.179445
	5275	C	13.931313	20.534716	-2.971164	C	1	YLD124_chi.LOD1	-0.27725
	5276	H	13.477587	21.453326	-2.599492	H	1	YLD124_chi.LOD1	0.132087
	5277	C	15.333955	20.423011	-2.839259	C	1	YLD124_chi.LOD1	0.141075
	5278	C	16.115851	21.411400	-2.276879	C	1	YLD124_chi.LOD1	-0.327608
	5279	H	15.814653	19.526089	-3.212230	H	1	YLD124_chi.LOD1	-0.027316
	5280	C	17.518451	21.395026	-2.117039	C	1	YLD124_chi.LOD1	0.260653
	5281	C	18.286760	22.437737	-1.611571	C	1	YLD124_chi.LOD1	-0.287606
	5282	C	18.486462	20.259831	-2.461509	C	1	YLD124_chi.LOD1	-0.056548
	5283	C	19.675175	22.063183	-1.641499	C	1	YLD124_chi.LOD1	0.509074
	5284	C	17.740437	23.668925	-1.168497	C	1	YLD124_chi.LOD1	0.396907
	5285	O	19.796551	20.822794	-2.172261	O	1	YLD124_chi.LOD1	-0.366332
	5286	C	18.528999	19.726780	-3.932942	C	1	YLD124_chi.LOD1	0.253806
	5287	C	18.424729	18.971775	-1.456886	C	1	YLD124_chi.LOD1	0.598114
	5288	C	20.818616	22.731340	-1.262737	C	1	YLD124_chi.LOD1	-0.43234
	5289	N	17.200912	24.645185	-0.833298	N	1	YLD124_chi.LOD1	-0.430249
	5290	C	20.788147	24.043736	-0.709195	C	1	YLD124_chi.LOD1	0.437474
	5291	C	22.092806	22.109107	-1.420184	C	1	YLD124_chi.LOD1	0.49223
	5292	N	20.809200	25.115615	-0.254012	N	1	YLD124_chi.LOD1	-0.451871
	5293	N	23.139473	21.614146	-1.544830	N	1	YLD124_chi.LOD1	-0.482758
	5294	H	15.621785	22.317211	-1.929671	H	1	YLD124_chi.LOD1	0.157364
	5295	H	14.586308	17.884097	-3.646040	H	1	YLD124_chi.LOD1	0.040059
	5296	H	11.387050	17.672484	-5.749564	H	1	YLD124_chi.LOD1	-0.024244
	5297	C	2.531902	21.568694	-5.208058	C	1	YLD124_chi.LOD1	0.240322
	5298	C	2.045067	19.451737	-6.181856	C	1	YLD124_chi.LOD1	0.113854
	5299	C	0.974761	18.945073	-5.393310	C	1	YLD124_chi.LOD1	0.29958
	5300	C	2.730202	22.636451	-6.126524	C	1	YLD124_chi.LOD1	0.285774
	5301	O	2.963950	22.172800	-7.370160	O	1	YLD124_chi.LOD1	-0.61175
	5302	O	1.260990	19.027400	-4.079200	O	1	YLD124_chi.LOD1	-0.599726
	5303	C	0.455668	16.956154	-2.281241	C	1	YLD124_chi.LOD1	0.275329
	5304	C	2.426580	20.882662	-9.999089	C	1	YLD124_chi.LOD1	0.358728
	5305	C	1.546202	19.645408	-9.715268	C	1	YLD124_chi.LOD1	-0.337707
	5306	H	0.478558	19.858231	-9.851401	H	1	YLD124_chi.LOD1	0.059176
	5307	H	1.804063	18.827793	-10.403670	H	1	YLD124_chi.LOD1	0.075606
	5308	H	1.684686	19.264660	-8.695850	H	1	YLD124_chi.LOD1	0.056098
	5309	C	-0.847411	17.333407	-3.020036	C	1	YLD124_chi.LOD1	-0.311529
	5310	H	-1.711326	16.858991	-2.532862	H	1	YLD124_chi.LOD1	0.071087
	5311	H	-1.028266	18.415587	-3.015190	H	1	YLD124_chi.LOD1	0.058721
	5312	H	-0.842596	16.999195	-4.065005	H	1	YLD124_chi.LOD1	0.056179
	5313	C	3.912570	20.494301	-9.838873	C	1	YLD124_chi.LOD1	-0.279876
	5314	H	4.576518	21.349502	-10.012297	H	1	YLD124_chi.LOD1	0.048405
	5315	H	4.128873	20.102805	-8.837746	H	1	YLD124_chi.LOD1	0.047411
	5316	H	4.184199	19.711138	-10.561421	H	1	YLD124_chi.LOD1	0.054899
	5317	C	2.187194	21.341028	-11.454175	C	1	YLD124_chi.LOD1	-0.273001
	5318	H	2.418752	20.525463	-12.154599	H	1	YLD124_chi.LOD1	0.0526
	5319	H	1.145008	21.633745	-11.632517	H	1	YLD124_chi.LOD1	0.034813
	5320	H	2.826260	22.189621	-11.726626	H	1	YLD124_chi.LOD1	0.061699
	5321	C	0.627729	15.421823	-2.308370	C	1	YLD124_chi.LOD1	-0.202774
	5322	H	0.673179	15.030914	-3.332444	H	1	YLD124_chi.LOD1	0.027959
	5323	H	1.540126	15.109134	-1.788489	H	1	YLD124_chi.LOD1	0.030756
	5324	H	-0.223450	14.934302	-1.811449	H	1	YLD124_chi.LOD1	0.045471
	5325	C	0.357763	17.422259	-0.812282	C	1	YLD124_chi.LOD1	-0.266625
	5326	H	0.197342	18.504705	-0.735561	H	1	YLD124_chi.LOD1	0.041283
	5327	H	-0.489827	16.931645	-0.312384	H	1	YLD124_chi.LOD1	0.059445
	5328	H	1.264801	17.175652	-0.249361	H	1	YLD124_chi.LOD1	0.054675
	5329	C	2.868766	16.643687	-4.215751	C	1	YLD124_chi.LOD1	-0.410828
	5330	H	2.891199	16.985102	-5.256748	H	1	YLD124_chi.LOD1	0.093855
	5331	H	3.907376	16.529117	-3.881785	H	1	YLD124_chi.LOD1	0.090546
	5332	H	2.415327	15.645130	-4.202399	H	1	YLD124_chi.LOD1	0.070213
	5333	C	3.106613	18.538673	-1.925421	C	1	YLD124_chi.LOD1	-0.460074
	5334	H	3.805939	19.233332	-2.406686	H	1	YLD124_chi.LOD1	0.099819
	5335	H	2.576725	19.091749	-1.141940	H	1	YLD124_chi.LOD1	0.10243
	5336	H	3.710009	17.764135	-1.436839	H	1	YLD124_chi.LOD1	0.086844
	5337	C	0.296177	22.119743	-8.131987	C	1	YLD124_chi.LOD1	-0.477029
	5338	H	-0.103897	23.081083	-7.791488	H	1	YLD124_chi.LOD1	0.107463
	5339	H	-0.363370	21.751006	-8.926066	H	1	YLD124_chi.LOD1	0.106999
	5340	H	0.234488	21.415283	-7.294163	H	1	YLD124_chi.LOD1	0.090486
	5341	C	2.230020	23.937829	-9.522256	C	1	YLD124_chi.LOD1	-0.470103
	5342	H	2.630746	24.654520	-8.794960	H	1	YLD124_chi.LOD1	0.112461
	5343	H	2.906245	23.924892	-10.384784	H	1	YLD124_chi.LOD1	0.098066
	5344	H	1.268072	24.333484	-9.869483	H	1	YLD124_chi.LOD1	0.083138
	5345	Si	2.004830	22.289600	-8.752760	Si	1	YLD124_chi.LOD1	0.770043
	5346	Si	1.945930	17.805000	-3.139610	Si	1	YLD124_chi.LOD1	0.73989
	5347	H	1.854563	23.301698	-6.136877	H	1	YLD124_chi.LOD1	-0.017464
	5348	H	1.632782	20.006842	-7.029255	H	1	YLD124_chi.LOD1	0.058354
	5349	H	0.068638	19.529423	-5.608072	H	1	YLD124_chi.LOD1	-0.04034
	5350	H	0.763804	17.898211	-5.658625	H	1	YLD124_chi.LOD1	-0.007901
	5351	H	2.575785	18.592847	-6.605842	H	1	YLD124_chi.LOD1	0.028132
	5352	H	1.460173	21.513718	-4.991564	H	1	YLD124_chi.LOD1	-0.011538
	5353	H	3.023564	21.810955	-4.261574	H	1	YLD124_chi.LOD1	0.020652
	5354	H	3.590836	23.233061	-5.793509	H	1	YLD124_chi.LOD1	-0.064856
	5355	C	12.322859	16.734375	-2.589732	C	1	YLD124_chi.LOD1	-0.299384
	5356	H	11.590722	15.920569	-2.524727	H	1	YLD124_chi.LOD1	0.066854
	5357	H	13.258567	16.375428	-2.144685	H	1	YLD124_chi.LOD1	0.072315
	5358	H	11.957317	17.564032	-1.976649	H	1	YLD124_chi.LOD1	0.027971
	5359	C	13.029957	15.928126	-4.855253	C	1	YLD124_chi.LOD1	-0.427943
	5360	H	12.287580	15.121257	-4.828960	H	1	YLD124_chi.LOD1	0.089807
	5361	H	13.213549	16.181700	-5.906513	H	1	YLD124_chi.LOD1	0.091303
	5362	H	13.963711	15.533286	-4.437108	H	1	YLD124_chi.LOD1	0.089757
	5363	C	18.501102	20.741202	-4.901844	C	1	YLD124_chi.LOD1	-0.158763
	5364	C	18.582140	18.391547	-4.352974	C	1	YLD124_chi.LOD1	-0.147279
	5365	C	18.519053	20.430649	-6.258605	C	1	YLD124_chi.LOD1	-0.065518
	5366	H	18.467812	21.781618	-4.592894	H	1	YLD124_chi.LOD1	0.080042
	5367	C	18.591015	18.083297	-5.715120	C	1	YLD124_chi.LOD1	-0.090746
	5368	H	18.623216	17.582241	-3.635757	H	1	YLD124_chi.LOD1	0.09871
	5369	C	18.560438	19.097135	-6.670725	C	1	YLD124_chi.LOD1	-0.09866
	5370	H	18.500358	21.231187	-6.992508	H	1	YLD124_chi.LOD1	0.104949
	5371	H	18.573166	18.852100	-7.729079	H	1	YLD124_chi.LOD1	0.102095
	5372	H	18.632189	17.042478	-6.023683	H	1	YLD124_chi.LOD1	0.105434
	5373	F	18.926412	17.834614	-1.962119	F	1	YLD124_chi.LOD1	-0.19867
	5374	F	17.139526	18.746361	-1.139915	F	1	YLD124_chi.LOD1	-0.154403
	5375	F	19.088946	19.243199	-0.311077	F	1	YLD124_chi.LOD1	-0.186491
	5376	C	-27.471989	-12.648297	-7.626103	C	1	YLD124.LOD1	-0.158041
	5377	C	-28.086298	-13.563314	-6.823333	C	1	YLD124.LOD1	-0.174247
	5378	H	-27.634694	-13.804852	-5.862389	H	1	YLD124.LOD1	0.11023
	5379	H	-27.923797	-12.424197	-8.590991	H	1	YLD124.LOD1	0.116594
	5380	N	-22.680653	-9.688488	-6.704325	N	1	YLD124.LOD1	-0.477879
	5381	C	-23.850860	-10.399233	-6.911702	C	1	YLD124.LOD1	0.383639
	5382	C	-24.348300	-11.312567	-5.943067	C	1	YLD124.LOD1	-0.278193
	5383	C	-25.501551	-12.042259	-6.163764	C	1	YLD124.LOD1	-0.102205
	5384	C	-26.253025	-11.916566	-7.352394	C	1	YLD124.LOD1	0.126725
	5385	C	-25.760945	-11.001828	-8.306045	C	1	YLD124.LOD1	-0.148338
	5386	C	-24.607802	-10.262448	-8.102739	C	1	YLD124.LOD1	-0.248652
	5387	H	-23.827223	-11.453210	-5.004354	H	1	YLD124.LOD1	0.176041
	5388	H	-25.828787	-12.726473	-5.386460	H	1	YLD124.LOD1	0.098595
	5389	H	-26.308426	-10.865913	-9.236312	H	1	YLD124.LOD1	0.105176
	5390	H	-24.297520	-9.570905	-8.876113	H	1	YLD124.LOD1	0.157607
	5391	C	-29.296498	-14.279100	-7.122539	C	1	YLD124.LOD1	0.13089
	5392	C	-29.772466	-15.203351	-6.220227	C	1	YLD124.LOD1	-0.298955
	5393	C	-30.042840	-14.049215	-8.420047	C	1	YLD124.LOD1	0.000678
	5394	H	-29.227076	-15.346062	-5.288520	H	1	YLD124.LOD1	0.128536
	5395	C	-31.537030	-14.445218	-8.363934	C	1	YLD124.LOD1	0.312314
	5396	H	-29.964682	-12.996982	-8.718321	H	1	YLD124.LOD1	0.009572
	5397	C	-31.652441	-15.859927	-7.749553	C	1	YLD124.LOD1	0.132423
	5398	H	-31.204757	-16.583846	-8.448084	H	1	YLD124.LOD1	-0.011706
	5399	C	-30.944027	-15.993101	-6.418358	C	1	YLD124.LOD1	0.094029
	5400	C	-31.237324	-16.805756	-5.367055	C	1	YLD124.LOD1	-0.194272
	5401	H	-30.626916	-16.830790	-4.464483	H	1	YLD124.LOD1	0.118653
	5402	C	-32.363134	-17.659407	-5.394418	C	1	YLD124.LOD1	0.029031
	5403	C	-32.715621	-18.473666	-4.337445	C	1	YLD124.LOD1	-0.298661
	5404	H	-32.980986	-17.663749	-6.284755	H	1	YLD124.LOD1	0.063317
	5405	C	-33.840687	-19.323169	-4.262696	C	1	YLD124.LOD1	0.24754
	5406	C	-34.223039	-20.064895	-3.150535	C	1	YLD124.LOD1	-0.281071
	5407	C	-34.879085	-19.597812	-5.354108	C	1	YLD124.LOD1	-0.098074
	5408	C	-35.450497	-20.756541	-3.439932	C	1	YLD124.LOD1	0.526995
	5409	C	-33.496573	-20.080978	-1.932970	C	1	YLD124.LOD1	0.389724
	5410	O	-35.858798	-20.445306	-4.694157	O	1	YLD124.LOD1	-0.351072
	5411	C	-34.357147	-20.541216	-6.573963	C	1	YLD124.LOD1	0.617997
	5412	C	-35.655384	-18.389220	-5.972084	C	1	YLD124.LOD1	0.253109
	5413	C	-36.231428	-21.604022	-2.685621	C	1	YLD124.LOD1	-0.451385
	5414	N	-32.836980	-20.026704	-0.974571	N	1	YLD124.LOD1	-0.428829
	5415	F	-33.756240	-21.603942	-6.017816	F	1	YLD124.LOD1	-0.200469
	5416	F	-35.307495	-20.995342	-7.406337	F	1	YLD124.LOD1	-0.158364
	5417	F	-33.435830	-19.888897	-7.317424	F	1	YLD124.LOD1	-0.193377
	5418	C	-35.169513	-17.150049	-5.528860	C	1	YLD124.LOD1	-0.158716
	5419	C	-36.767210	-18.415532	-6.823457	C	1	YLD124.LOD1	-0.162688
	5420	C	-35.888785	-21.974430	-1.353267	C	1	YLD124.LOD1	0.447489
	5421	C	-37.432314	-22.144470	-3.234578	C	1	YLD124.LOD1	0.491336
	5422	H	-34.313191	-17.113820	-4.862067	H	1	YLD124.LOD1	0.085247
	5423	C	-35.774211	-15.962948	-5.931836	C	1	YLD124.LOD1	-0.074329
	5424	C	-37.365879	-17.221713	-7.233565	C	1	YLD124.LOD1	-0.055824
	5425	H	-37.182118	-19.352625	-7.171186	H	1	YLD124.LOD1	0.099228
	5426	N	-35.646904	-22.302524	-0.262216	N	1	YLD124.LOD1	-0.454587
	5427	N	-38.416142	-22.590947	-3.669054	N	1	YLD124.LOD1	-0.481156
	5428	H	-35.384788	-15.014004	-5.574597	H	1	YLD124.LOD1	0.111202
	5429	C	-36.874479	-15.994832	-6.791403	C	1	YLD124.LOD1	-0.106678
	5430	H	-38.228405	-17.259472	-7.893054	H	1	YLD124.LOD1	0.095951
	5431	H	-37.347449	-15.069558	-7.108438	H	1	YLD124.LOD1	0.103827
	5432	H	-32.091961	-18.452045	-3.445403	H	1	YLD124.LOD1	0.159396
	5433	H	-32.709931	-16.130241	-7.663528	H	1	YLD124.LOD1	-0.052081
	5434	H	-29.546271	-14.625759	-9.215970	H	1	YLD124.LOD1	-0.003289
	5435	C	-21.974378	-9.754810	-5.476652	C	1	YLD124.LOD1	0.198954
	5436	C	-22.195236	-8.725255	-7.640122	C	1	YLD124.LOD1	0.115128
	5437	C	-22.688822	-7.382074	-7.668432	C	1	YLD124.LOD1	0.306486
	5438	C	-22.534500	-9.067563	-4.362677	C	1	YLD124.LOD1	0.28632
	5439	O	-23.449900	-8.163870	-4.762710	O	1	YLD124.LOD1	-0.606883
	5440	O	-23.675000	-7.151380	-8.556700	O	1	YLD124.LOD1	-0.600198
	5441	C	-25.445384	-6.235430	-10.569083	C	1	YLD124.LOD1	0.267162
	5442	C	-25.215207	-5.886193	-4.019221	C	1	YLD124.LOD1	0.369124
	5443	C	-26.627580	-5.561656	-3.483355	C	1	YLD124.LOD1	-0.324271
	5444	H	-26.786501	-5.953881	-2.471078	H	1	YLD124.LOD1	0.053925
	5445	H	-26.775336	-4.473165	-3.435775	H	1	YLD124.LOD1	0.070181
	5446	H	-27.417283	-5.966948	-4.127506	H	1	YLD124.LOD1	0.052098
	5447	C	-25.700988	-5.132836	-11.620460	C	1	YLD124.LOD1	-0.316887
	5448	H	-26.645453	-5.324898	-12.149401	H	1	YLD124.LOD1	0.07213
	5449	H	-25.781604	-4.137655	-11.165628	H	1	YLD124.LOD1	0.059956
	5450	H	-24.908620	-5.091918	-12.378178	H	1	YLD124.LOD1	0.057948
	5451	C	-25.056707	-5.273533	-5.427624	C	1	YLD124.LOD1	-0.260833
	5452	H	-24.069663	-5.486824	-5.854612	H	1	YLD124.LOD1	0.041714
	5453	H	-25.810244	-5.655148	-6.126757	H	1	YLD124.LOD1	0.041636
	5454	H	-25.172726	-4.180760	-5.386869	H	1	YLD124.LOD1	0.048242
	5455	C	-24.169255	-5.250199	-3.078044	C	1	YLD124.LOD1	-0.256632
	5456	H	-24.326307	-4.163854	-3.010368	H	1	YLD124.LOD1	0.046696
	5457	H	-24.230222	-5.649771	-2.058260	H	1	YLD124.LOD1	0.030906
	5458	H	-23.145303	-5.404867	-3.439138	H	1	YLD124.LOD1	0.051975
	5459	C	-25.374227	-7.604787	-11.279389	C	1	YLD124.LOD1	-0.203727
	5460	H	-24.578609	-7.633589	-12.034110	H	1	YLD124.LOD1	0.027457
	5461	H	-25.193251	-8.419452	-10.569451	H	1	YLD124.LOD1	0.031775
	5462	H	-26.321373	-7.815548	-11.796516	H	1	YLD124.LOD1	0.046776
	5463	C	-26.615007	-6.253750	-9.560887	C	1	YLD124.LOD1	-0.249027
	5464	H	-26.732281	-5.288826	-9.052294	H	1	YLD124.LOD1	0.037596
	5465	H	-27.561555	-6.465637	-10.078736	H	1	YLD124.LOD1	0.055765
	5466	H	-26.474849	-7.023098	-8.793506	H	1	YLD124.LOD1	0.04836
	5467	C	-23.824801	-4.283282	-8.757406	C	1	YLD124.LOD1	-0.409962
	5468	H	-24.669265	-4.226042	-8.061443	H	1	YLD124.LOD1	0.090944
	5469	H	-22.905582	-4.132655	-8.178116	H	1	YLD124.LOD1	0.090896
	5470	H	-23.908217	-3.438990	-9.452572	H	1	YLD124.LOD1	0.069902
	5471	C	-22.353439	-5.900504	-10.788838	C	1	YLD124.LOD1	-0.458602
	5472	H	-21.413888	-5.751378	-10.242745	H	1	YLD124.LOD1	0.097974
	5473	H	-22.276661	-6.850665	-11.329190	H	1	YLD124.LOD1	0.103309
	5474	H	-22.423450	-5.098277	-11.533540	H	1	YLD124.LOD1	0.085827
	5475	C	-26.132257	-8.544372	-5.336333	C	1	YLD124.LOD1	-0.493974
	5476	H	-25.954311	-8.175520	-6.352448	H	1	YLD124.LOD1	0.11158
	5477	H	-26.005313	-9.632956	-5.353840	H	1	YLD124.LOD1	0.113577
	5478	H	-27.177541	-8.335004	-5.081102	H	1	YLD124.LOD1	0.09477
	5479	C	-25.173895	-8.573986	-2.494082	C	1	YLD124.LOD1	-0.483575
	5480	H	-25.017438	-9.657633	-2.559448	H	1	YLD124.LOD1	0.116965
	5481	H	-24.476838	-8.181910	-1.744829	H	1	YLD124.LOD1	0.100121
	5482	H	-26.188519	-8.415698	-2.109447	H	1	YLD124.LOD1	0.088084
	5483	Si	-24.974300	-7.794490	-4.142160	Si	1	YLD124.LOD1	0.763339
	5484	Si	-23.795800	-5.878920	-9.658280	Si	1	YLD124.LOD1	0.748472
	5485	H	-23.008746	-9.804932	-3.698448	H	1	YLD124.LOD1	-0.009815
	5486	H	-21.104344	-8.700000	-7.565985	H	1	YLD124.LOD1	0.057511
	5487	H	-23.060911	-7.208166	-6.648525	H	1	YLD124.LOD1	-0.045737
	5488	H	-21.864677	-6.674569	-7.844630	H	1	YLD124.LOD1	-0.011652
	5489	H	-22.427120	-9.097516	-8.643508	H	1	YLD124.LOD1	0.023801
	5490	H	-21.848812	-10.812783	-5.223118	H	1	YLD124.LOD1	-0.001966
	5491	H	-20.968682	-9.356431	-5.636384	H	1	YLD124.LOD1	0.031172
	5492	H	-21.747195	-8.564196	-3.784644	H	1	YLD124.LOD1	-0.066029
	5493	C	-32.261077	-13.420319	-7.497787	C	1	YLD124.LOD1	-0.185058
	5494	H	-32.207227	-12.420415	-7.944865	H	1	YLD124.LOD1	0.04722
	5495	H	-33.318816	-13.704565	-7.444206	H	1	YLD124.LOD1	0.027573
	5496	H	-31.880895	-13.351084	-6.473852	H	1	YLD124.LOD1	0.00699
	5497	C	-32.040749	-14.456368	-9.769901	C	1	YLD124.LOD1	-0.347891
	5498	H	-31.954815	-13.469899	-10.241565	H	1	YLD124.LOD1	0.075067
	5499	H	-31.514052	-15.179285	-10.404827	H	1	YLD124.LOD1	0.071859
	5500	H	-33.103099	-14.728512	-9.761060	H	1	YLD124.LOD1	0.077505
	5501	C	2.253167	26.320853	-1.708253	C	2	YLD124.LOD1	-0.158041
	5502	C	3.317959	25.470144	-1.668472	C	2	YLD124.LOD1	-0.174247
	5503	H	3.512809	24.833265	-2.529935	H	2	YLD124.LOD1	0.11023
	5504	H	2.058437	26.943189	-0.836392	H	2	YLD124.LOD1	0.116594
	5505	N	-1.531425	27.161643	-5.895972	N	2	YLD124.LOD1	-0.477879
	5506	C	-0.598699	26.962231	-4.892077	C	2	YLD124.LOD1	0.383639
	5507	C	0.462424	26.027968	-5.037169	C	2	YLD124.LOD1	-0.278193
	5508	C	1.376141	25.809682	-4.022961	C	2	YLD124.LOD1	-0.102205
	5509	C	1.314809	26.504509	-2.795440	C	2	YLD124.LOD1	0.126725
	5510	C	0.266268	27.437561	-2.660120	C	2	YLD124.LOD1	-0.148338
	5511	C	-0.658253	27.669530	-3.664713	C	2	YLD124.LOD1	-0.248652
	5512	H	0.575396	25.465613	-5.955578	H	2	YLD124.LOD1	0.176041
	5513	H	2.162591	25.080342	-4.193238	H	2	YLD124.LOD1	0.098595
	5514	H	0.180263	28.001911	-1.733989	H	2	YLD124.LOD1	0.105176
	5515	H	-1.429498	28.409917	-3.492605	H	2	YLD124.LOD1	0.157607
	5516	C	4.232938	25.305198	-0.572085	C	2	YLD124.LOD1	0.13089
	5517	C	5.240803	24.372786	-0.670927	C	2	YLD124.LOD1	-0.298955
	5518	C	4.093831	26.123040	0.694873	C	2	YLD124.LOD1	0.000678
	5519	H	5.330166	23.802586	-1.594388	H	2	YLD124.LOD1	0.128536
	5520	C	5.400592	26.239105	1.514309	C	2	YLD124.LOD1	0.312314
	5521	H	3.733527	27.130540	0.455304	H	2	YLD124.LOD1	0.009572
	5522	C	6.012452	24.827689	1.674676	C	2	YLD124.LOD1	0.132423
	5523	H	5.344800	24.225549	2.310361	H	2	YLD124.LOD1	-0.011706
	5524	C	6.189543	24.099962	0.359109	C	2	YLD124.LOD1	0.094029
	5525	C	7.116736	23.166339	0.012250	C	2	YLD124.LOD1	-0.194272
	5526	H	7.121953	22.689201	-0.967635	H	2	YLD124.LOD1	0.118653
	5527	C	8.131023	22.772714	0.914024	C	2	YLD124.LOD1	0.029031
	5528	C	9.110178	21.855420	0.591096	C	2	YLD124.LOD1	-0.298661
	5529	H	8.142364	23.222345	1.900007	H	2	YLD124.LOD1	0.063317
	5530	C	10.180274	21.436467	1.411088	C	2	YLD124.LOD1	0.24754
	5531	C	11.205765	20.578775	1.029006	C	2	YLD124.LOD1	-0.281071
	5532	C	10.458097	21.836744	2.862801	C	2	YLD124.LOD1	-0.098074
	5533	C	12.137410	20.438480	2.115805	C	2	YLD124.LOD1	0.526995
	5534	C	11.290225	19.982805	-0.254802	C	2	YLD124.LOD1	0.389724
	5535	O	11.734899	21.206832	3.157092	O	2	YLD124.LOD1	-0.351072
	5536	C	9.465884	21.159544	3.961641	C	2	YLD124.LOD1	0.617997
	5537	C	10.602098	23.354989	3.208197	C	2	YLD124.LOD1	0.253109
	5538	C	13.303636	19.716886	2.243406	C	2	YLD124.LOD1	-0.451385
	5539	N	11.276404	19.545328	-1.334135	N	2	YLD124.LOD1	-0.428829
	5540	F	9.413801	19.847543	3.686472	F	2	YLD124.LOD1	-0.200469
	5541	F	9.837989	21.296022	5.244276	F	2	YLD124.LOD1	-0.158364
	5542	F	8.214546	21.656140	3.840707	F	2	YLD124.LOD1	-0.193377
	5543	C	11.348124	24.074013	2.262410	C	2	YLD124.LOD1	-0.158716
	5544	C	10.061034	24.037615	4.304992	C	2	YLD124.LOD1	-0.162688
	5545	C	13.810909	18.894606	1.196361	C	2	YLD124.LOD1	0.447489
	5546	C	14.050093	19.777514	3.457775	C	2	YLD124.LOD1	0.491336
	5547	H	11.780671	23.557266	1.410889	H	2	YLD124.LOD1	0.085247
	5548	C	11.543844	25.444837	2.403098	C	2	YLD124.LOD1	-0.074329
	5549	C	10.251421	25.415234	4.438082	C	2	YLD124.LOD1	-0.055824
	5550	H	9.495753	23.514070	5.064970	H	2	YLD124.LOD1	0.099228
	5551	N	14.261141	18.211580	0.367319	N	2	YLD124.LOD1	-0.454587
	5552	N	14.670594	19.819526	4.442275	N	2	YLD124.LOD1	-0.481156
	5553	H	12.127551	25.982568	1.661547	H	2	YLD124.LOD1	0.111202
	5554	C	10.990834	26.122475	3.491881	C	2	YLD124.LOD1	-0.106678
	5555	H	9.826282	25.929594	5.295399	H	2	YLD124.LOD1	0.095951
	5556	H	11.141077	27.192692	3.603263	H	2	YLD124.LOD1	0.103827
	5557	H	9.092888	21.418989	-0.406095	H	2	YLD124.LOD1	0.159396
	5558	H	6.961886	24.905732	2.214343	H	2	YLD124.LOD1	-0.052081
	5559	H	3.313562	25.665294	1.322668	H	2	YLD124.LOD1	-0.003289
	5560	C	-1.420428	26.525942	-7.158608	C	2	YLD124.LOD1	0.198954
	5561	C	-2.568311	28.136747	-5.783991	C	2	YLD124.LOD1	0.115128
	5562	C	-2.317255	29.532489	-5.978755	C	2	YLD124.LOD1	0.306486
	5563	C	-0.446762	27.036680	-8.062858	C	2	YLD124.LOD1	0.28632
	5564	O	0.030614	28.222100	-7.636880	O	2	YLD124.LOD1	-0.606883
	5565	O	-2.113990	30.243700	-4.852790	O	2	YLD124.LOD1	-0.600198
	5566	C	-2.627049	31.391857	-2.314773	C	2	YLD124.LOD1	0.267162
	5567	C	2.303904	29.725486	-6.441559	C	2	YLD124.LOD1	0.369124
	5568	C	3.609188	30.463351	-6.814468	C	2	YLD124.LOD1	-0.324271
	5569	H	3.422718	31.340707	-7.446350	H	2	YLD124.LOD1	0.053925
	5570	H	4.116923	30.820035	-5.906784	H	2	YLD124.LOD1	0.070181
	5571	H	4.314910	29.812481	-7.344705	H	2	YLD124.LOD1	0.052098
	5572	C	-3.534624	32.363108	-1.527741	C	2	YLD124.LOD1	-0.316887
	5573	H	-3.216169	32.412021	-0.476611	H	2	YLD124.LOD1	0.07213
	5574	H	-3.492216	33.384397	-1.926395	H	2	YLD124.LOD1	0.059956
	5575	H	-4.584450	32.044522	-1.533001	H	2	YLD124.LOD1	0.057948
	5576	C	2.644195	28.529107	-5.526708	C	2	YLD124.LOD1	-0.260833
	5577	H	1.746821	27.966882	-5.242644	H	2	YLD124.LOD1	0.041714
	5578	H	3.335636	27.828571	-6.009816	H	2	YLD124.LOD1	0.041636
	5579	H	3.125651	28.877359	-4.601401	H	2	YLD124.LOD1	0.048242
	5580	C	1.387017	30.698849	-5.669416	C	2	YLD124.LOD1	-0.256632
	5581	H	1.898656	31.075082	-4.771605	H	2	YLD124.LOD1	0.046696
	5582	H	1.106742	31.571928	-6.271508	H	2	YLD124.LOD1	0.030906
	5583	H	0.463684	30.212123	-5.332753	H	2	YLD124.LOD1	0.051975
	5584	C	-2.717122	29.987686	-1.678435	C	2	YLD124.LOD1	-0.203727
	5585	H	-3.744515	29.603101	-1.679109	H	2	YLD124.LOD1	0.027457
	5586	H	-2.087122	29.263407	-2.206604	H	2	YLD124.LOD1	0.031775
	5587	H	-2.382798	30.021544	-0.631532	H	2	YLD124.LOD1	0.046776
	5588	C	-1.166376	31.886452	-2.233376	C	2	YLD124.LOD1	-0.249027
	5589	H	-1.053452	32.898451	-2.641548	H	2	YLD124.LOD1	0.037596
	5590	H	-0.832573	31.918964	-1.186221	H	2	YLD124.LOD1	0.055765
	5591	H	-0.485021	31.225578	-2.780565	H	2	YLD124.LOD1	0.04836
	5592	C	-3.079263	32.953309	-4.974953	C	2	YLD124.LOD1	-0.409962
	5593	H	-2.069260	33.372096	-4.902340	H	2	YLD124.LOD1	0.090944
	5594	H	-3.333390	32.880507	-6.039540	H	2	YLD124.LOD1	0.090896
	5595	H	-3.772576	33.676248	-4.528052	H	2	YLD124.LOD1	0.069902
	5596	C	-4.908894	30.688443	-4.319544	C	2	YLD124.LOD1	-0.458602
	5597	H	-5.198543	30.603185	-5.374080	H	2	YLD124.LOD1	0.097974
	5598	H	-5.021796	29.698863	-3.862745	H	2	YLD124.LOD1	0.103309
	5599	H	-5.631265	31.360861	-3.840918	H	2	YLD124.LOD1	0.085827
	5600	C	2.466303	27.828344	-8.894319	C	2	YLD124.LOD1	-0.493974
	5601	H	2.627886	26.939103	-8.275169	H	2	YLD124.LOD1	0.11158
	5602	H	1.971828	27.502428	-9.816659	H	2	YLD124.LOD1	0.113577
	5603	H	3.448718	28.230716	-9.167368	H	2	YLD124.LOD1	0.09477
	5604	C	1.030814	30.448333	-9.163449	C	2	YLD124.LOD1	-0.483575
	5605	H	0.520215	30.075104	-10.059569	H	2	YLD124.LOD1	0.116965
	5606	H	0.385171	31.205151	-8.703705	H	2	YLD124.LOD1	0.100121
	5607	H	1.942335	30.957679	-9.498347	H	2	YLD124.LOD1	0.088084
	5608	Si	1.437980	29.064100	-8.031360	Si	2	YLD124.LOD1	0.763339
	5609	Si	-3.198960	31.324300	-4.144010	Si	2	YLD124.LOD1	0.748472
	5610	H	0.378248	26.313862	-8.144795	H	2	YLD124.LOD1	-0.009815
	5611	H	-3.393213	27.832383	-6.434436	H	2	YLD124.LOD1	0.057511
	5612	H	-1.412403	29.560353	-6.602750	H	2	YLD124.LOD1	-0.045737
	5613	H	-3.132758	29.990238	-6.558621	H	2	YLD124.LOD1	-0.011652
	5614	H	-2.952079	28.093442	-4.759306	H	2	YLD124.LOD1	0.023801
	5615	H	-1.218528	25.464825	-6.977999	H	2	YLD124.LOD1	-0.001966
	5616	H	-2.394163	26.572725	-7.653882	H	2	YLD124.LOD1	0.031172
	5617	H	-0.881725	27.152723	-9.065201	H	2	YLD124.LOD1	-0.066029
	5618	C	6.351427	27.155827	0.752405	C	2	YLD124.LOD1	-0.185058
	5619	H	5.934571	28.166101	0.662051	H	2	YLD124.LOD1	0.04722
	5620	H	7.284699	27.230547	1.323281	H	2	YLD124.LOD1	0.027573
	5621	H	6.601673	26.804781	-0.253536	H	2	YLD124.LOD1	0.00699
	5622	C	5.031591	26.790850	2.852231	C	2	YLD124.LOD1	-0.347891
	5623	H	4.576346	27.785449	2.771622	H	2	YLD124.LOD1	0.075067
	5624	H	4.334416	26.145805	3.400879	H	2	YLD124.LOD1	0.071859
	5625	H	5.942210	26.890623	3.455178	H	2	YLD124.LOD1	0.077505
	5626	C	22.333023	-14.366937	-18.613805	C	3	YLD124.LOD1	-0.158041
	5627	C	21.314824	-14.944078	-19.313269	C	3	YLD124.LOD1	-0.174247
	5628	H	20.752811	-15.753331	-18.849642	H	3	YLD124.LOD1	0.11023
	5629	H	22.898034	-13.568253	-19.091538	H	3	YLD124.LOD1	0.116594
	5630	N	24.206161	-15.538233	-13.352011	N	3	YLD124.LOD1	-0.477879
	5631	C	23.733934	-15.250462	-14.621553	C	3	YLD124.LOD1	0.383639
	5632	C	22.640438	-15.960405	-15.187352	C	3	YLD124.LOD1	-0.278193
	5633	C	22.188406	-15.691020	-16.465728	C	3	YLD124.LOD1	-0.102205
	5634	C	22.776469	-14.694820	-17.275123	C	3	YLD124.LOD1	0.126725
	5635	C	23.854498	-13.986399	-16.705623	C	3	YLD124.LOD1	-0.148338
	5636	C	24.321159	-14.242280	-15.427144	C	3	YLD124.LOD1	-0.248652
	5637	H	22.136081	-16.732441	-14.619844	H	3	YLD124.LOD1	0.176041
	5638	H	21.350682	-16.270033	-16.843083	H	3	YLD124.LOD1	0.098595
	5639	H	24.337328	-13.204979	-17.288602	H	3	YLD124.LOD1	0.105176
	5640	H	25.146428	-13.649418	-15.052901	H	3	YLD124.LOD1	0.157607
	5641	C	20.897710	-14.600561	-20.645361	C	3	YLD124.LOD1	0.13089
	5642	C	19.871390	-15.305704	-21.232213	C	3	YLD124.LOD1	-0.298955
	5643	C	21.581017	-13.492863	-21.419633	C	3	YLD124.LOD1	0.000678
	5644	H	19.386137	-16.091170	-20.654746	H	3	YLD124.LOD1	0.128536
	5645	C	20.714857	-12.890307	-22.550679	C	3	YLD124.LOD1	0.312314
	5646	H	21.885578	-12.689469	-20.738406	H	3	YLD124.LOD1	0.009572
	5647	C	20.120906	-14.045903	-23.389729	C	3	YLD124.LOD1	0.132423
	5648	H	20.942306	-14.555097	-23.917413	H	3	YLD124.LOD1	-0.011706
	5649	C	19.389780	-15.075945	-22.555383	C	3	YLD124.LOD1	0.094029
	5650	C	18.339577	-15.870329	-22.898353	C	3	YLD124.LOD1	-0.194272
	5651	H	17.915528	-16.601507	-22.210296	H	3	YLD124.LOD1	0.118653
	5652	C	17.739043	-15.778250	-24.174204	C	3	YLD124.LOD1	0.029031
	5653	C	16.651654	-16.540100	-24.550536	C	3	YLD124.LOD1	-0.298661
	5654	H	18.148444	-15.067823	-24.882826	H	3	YLD124.LOD1	0.063317
	5655	C	15.965980	-16.484656	-25.783334	C	3	YLD124.LOD1	0.24754
	5656	C	14.816870	-17.198863	-26.103813	C	3	YLD124.LOD1	-0.281071
	5657	C	16.311581	-15.632776	-27.007972	C	3	YLD124.LOD1	-0.098074
	5658	C	14.382398	-16.831799	-27.424902	C	3	YLD124.LOD1	0.526995
	5659	C	14.192162	-18.114357	-25.219455	C	3	YLD124.LOD1	0.389724
	5660	O	15.214645	-15.887614	-27.927432	O	3	YLD124.LOD1	-0.351072
	5661	C	17.607894	-16.140702	-27.851661	C	3	YLD124.LOD1	0.617997
	5662	C	16.420047	-14.082173	-26.836711	C	3	YLD124.LOD1	0.253109
	5663	C	13.314742	-17.242636	-28.191966	C	3	YLD124.LOD1	-0.451385
	5664	N	13.749033	-18.841071	-24.424433	N	3	YLD124.LOD1	-0.428829
	5665	F	17.457287	-17.459707	-28.044842	F	3	YLD124.LOD1	-0.200469
	5666	F	17.782343	-15.566699	-29.052631	F	3	YLD124.LOD1	-0.158364
	5667	F	18.740778	-15.955257	-27.138034	F	3	YLD124.LOD1	-0.193377
	5668	C	16.523014	-13.686609	-25.494702	C	3	YLD124.LOD1	-0.158716
	5669	C	16.345172	-13.096938	-27.829381	C	3	YLD124.LOD1	-0.162688
	5670	C	12.380539	-18.218541	-27.739587	C	3	YLD124.LOD1	0.447489
	5671	C	13.114042	-16.686426	-29.490393	C	3	YLD124.LOD1	0.491336
	5672	H	16.573911	-14.438837	-24.713180	H	3	YLD124.LOD1	0.085247
	5673	C	16.558292	-12.338400	-25.150687	C	3	YLD124.LOD1	-0.074329
	5674	C	16.390421	-11.744688	-27.481292	C	3	YLD124.LOD1	-0.055824
	5675	H	16.246190	-13.362954	-28.873721	H	3	YLD124.LOD1	0.099228
	5676	N	11.594145	-19.011689	-27.409366	N	3	YLD124.LOD1	-0.454587
	5677	N	12.936786	-16.239191	-30.550859	N	3	YLD124.LOD1	-0.481156
	5678	H	16.634832	-12.052996	-24.105483	H	3	YLD124.LOD1	0.111202
	5679	C	16.496515	-11.360510	-26.145863	C	3	YLD124.LOD1	-0.106678
	5680	H	16.329835	-10.992855	-28.263199	H	3	YLD124.LOD1	0.095951
	5681	H	16.525178	-10.307491	-25.880019	H	3	YLD124.LOD1	0.103827
	5682	H	16.244185	-17.242591	-23.825528	H	3	YLD124.LOD1	0.159396
	5683	H	19.469188	-13.630219	-24.165116	H	3	YLD124.LOD1	-0.052081
	5684	H	22.512376	-13.891124	-21.851414	H	3	YLD124.LOD1	-0.003289
	5685	C	23.578498	-16.472821	-12.488553	C	3	YLD124.LOD1	0.198954
	5686	C	25.266092	-14.799155	-12.744198	C	3	YLD124.LOD1	0.115128
	5687	C	24.983320	-13.567277	-12.080171	C	3	YLD124.LOD1	0.306486
	5688	C	22.560393	-15.998972	-11.612841	C	3	YLD124.LOD1	0.28632
	5689	O	21.979200	-14.884500	-12.097600	O	3	YLD124.LOD1	-0.606883
	5690	O	24.477700	-12.628800	-12.903800	O	3	YLD124.LOD1	-0.600198
	5691	C	24.397607	-9.829357	-12.479883	C	3	YLD124.LOD1	0.267162
	5692	C	19.574018	-13.533457	-13.214118	C	3	YLD124.LOD1	0.369124
	5693	C	18.264334	-12.829897	-12.793397	C	3	YLD124.LOD1	-0.324271
	5694	H	18.452366	-11.915422	-12.217047	H	3	YLD124.LOD1	0.053925
	5695	H	17.686341	-12.539260	-13.682420	H	3	YLD124.LOD1	0.070181
	5696	H	17.621310	-13.480782	-12.188671	H	3	YLD124.LOD1	0.052098
	5697	C	25.027659	-8.473992	-12.870346	C	3	YLD124.LOD1	-0.316887
	5698	H	24.538572	-7.656400	-12.321697	H	3	YLD124.LOD1	0.07213
	5699	H	26.097332	-8.430114	-12.630283	H	3	YLD124.LOD1	0.059956
	5700	H	24.915058	-8.258207	-13.940120	H	3	YLD124.LOD1	0.057948
	5701	C	19.228528	-14.786498	-14.047543	C	3	YLD124.LOD1	-0.260833
	5702	H	20.129535	-15.326410	-14.361788	H	3	YLD124.LOD1	0.041714
	5703	H	18.598917	-15.488738	-13.488362	H	3	YLD124.LOD1	0.041636
	5704	H	18.675998	-14.504120	-14.955423	H	3	YLD124.LOD1	0.048242
	5705	C	20.398833	-12.564490	-14.088819	C	3	YLD124.LOD1	-0.256632
	5706	H	19.816731	-12.254004	-14.968675	H	3	YLD124.LOD1	0.046696
	5707	H	20.678728	-11.652074	-13.547994	H	3	YLD124.LOD1	0.030906
	5708	H	21.319241	-13.030658	-14.460738	H	3	YLD124.LOD1	0.051975
	5709	C	22.891389	-9.803435	-12.819550	C	3	YLD124.LOD1	-0.203727
	5710	H	22.715452	-9.616958	-13.886187	H	3	YLD124.LOD1	0.027457
	5711	H	22.401897	-10.748303	-12.558658	H	3	YLD124.LOD1	0.031775
	5712	H	22.388597	-9.000593	-12.261365	H	3	YLD124.LOD1	0.046776
	5713	C	24.565192	-10.045818	-10.960057	C	3	YLD124.LOD1	-0.249027
	5714	H	25.620111	-10.036945	-10.659113	H	3	YLD124.LOD1	0.037596
	5715	H	24.061188	-9.243116	-10.402683	H	3	YLD124.LOD1	0.055765
	5716	H	24.131884	-10.999059	-10.637580	H	3	YLD124.LOD1	0.04836
	5717	C	27.054527	-11.354193	-13.058932	C	3	YLD124.LOD1	-0.409962
	5718	H	27.230088	-11.459736	-11.982456	H	3	YLD124.LOD1	0.090944
	5719	H	27.518868	-12.213861	-13.557515	H	3	YLD124.LOD1	0.090896
	5720	H	27.589998	-10.458855	-13.397584	H	3	YLD124.LOD1	0.069902
	5721	C	25.057830	-11.077238	-15.259677	C	3	YLD124.LOD1	-0.458602
	5722	H	25.512205	-11.921475	-15.792612	H	3	YLD124.LOD1	0.097974
	5723	H	24.000214	-11.035555	-15.543212	H	3	YLD124.LOD1	0.103309
	5724	H	25.539085	-10.164893	-15.632598	H	3	YLD124.LOD1	0.085827
	5725	C	19.645537	-15.310702	-10.669020	C	3	YLD124.LOD1	-0.493974
	5726	H	19.483623	-16.235425	-11.233712	H	3	YLD124.LOD1	0.11158
	5727	H	20.209915	-15.570420	-9.765991	H	3	YLD124.LOD1	0.113577
	5728	H	18.665835	-14.934223	-10.352722	H	3	YLD124.LOD1	0.09477
	5729	C	20.982346	-12.625958	-10.617041	C	3	YLD124.LOD1	-0.483575
	5730	H	21.563172	-12.933573	-9.738942	H	3	YLD124.LOD1	0.116965
	5731	H	21.565358	-11.868187	-11.152646	H	3	YLD124.LOD1	0.100121
	5732	H	20.072644	-12.136837	-10.248718	H	3	YLD124.LOD1	0.088084
	5733	Si	20.564600	-14.080000	-11.653800	Si	3	YLD124.LOD1	0.763339
	5734	Si	25.267000	-11.239400	-13.446100	Si	3	YLD124.LOD1	0.748472
	5735	H	21.795587	-16.771220	-11.443946	H	3	YLD124.LOD1	-0.009815
	5736	H	25.803443	-15.470234	-12.068116	H	3	YLD124.LOD1	0.057511
	5737	H	24.247033	-13.811647	-11.301024	H	3	YLD124.LOD1	-0.045737
	5738	H	25.877283	-13.169341	-11.576882	H	3	YLD124.LOD1	-0.011652
	5739	H	25.972811	-14.529007	-13.535842	H	3	YLD124.LOD1	0.023801
	5740	H	23.119760	-17.240144	-13.121109	H	3	YLD124.LOD1	-0.001966
	5741	H	24.356857	-16.977723	-11.909868	H	3	YLD124.LOD1	0.031172
	5742	H	23.025281	-15.780018	-10.641610	H	3	YLD124.LOD1	-0.066029
	5743	C	19.605754	-12.067979	-21.903817	C	3	YLD124.LOD1	-0.185058
	5744	H	20.021196	-11.229578	-21.331910	H	3	YLD124.LOD1	0.04722
	5745	H	18.980936	-11.649478	-22.701901	H	3	YLD124.LOD1	0.027573
	5746	H	18.955527	-12.640798	-21.235343	H	3	YLD124.LOD1	0.00699
	5747	C	21.618684	-12.056082	-23.397945	C	3	YLD124.LOD1	-0.347891
	5748	H	22.072075	-11.237021	-22.826501	H	3	YLD124.LOD1	0.075067
	5749	H	22.429862	-12.636572	-23.854203	H	3	YLD124.LOD1	0.071859
	5750	H	21.028991	-11.609204	-24.207444	H	3	YLD124.LOD1	0.077505
	5751	C	12.641519	-24.677819	-4.219396	C	1	YLD124_chi.LOD1	-0.150166
	5752	C	12.564930	-24.472160	-5.565092	C	1	YLD124_chi.LOD1	-0.190723
	5753	H	13.422814	-24.726806	-6.185502	H	1	YLD124_chi.LOD1	0.123134
	5754	H	11.784332	-24.401391	-3.607701	H	1	YLD124_chi.LOD1	0.111619
	5755	N	16.993198	-26.671734	-1.114295	N	1	YLD124_chi.LOD1	-0.506176
	5756	C	15.930493	-26.222050	-1.879935	C	1	YLD124_chi.LOD1	0.404469
	5757	C	16.010670	-26.152403	-3.297126	C	1	YLD124_chi.LOD1	-0.281203
	5758	C	14.965159	-25.660345	-4.056184	C	1	YLD124_chi.LOD1	-0.112562
	5759	C	13.759808	-25.213688	-3.472257	C	1	YLD124_chi.LOD1	0.131862
	5760	C	13.675156	-25.309920	-2.068043	C	1	YLD124_chi.LOD1	-0.140167
	5761	C	14.712572	-25.797481	-1.291181	C	1	YLD124_chi.LOD1	-0.26473
	5762	H	16.901666	-26.488766	-3.812370	H	1	YLD124_chi.LOD1	0.177954
	5763	H	15.088681	-25.627459	-5.134688	H	1	YLD124_chi.LOD1	0.098859
	5764	H	12.761471	-24.988265	-1.572742	H	1	YLD124_chi.LOD1	0.103807
	5765	H	14.572020	-25.847722	-0.218652	H	1	YLD124_chi.LOD1	0.161189
	5766	C	11.449449	-23.903237	-6.271400	C	1	YLD124_chi.LOD1	0.100982
	5767	C	11.546302	-23.693445	-7.628346	C	1	YLD124_chi.LOD1	-0.303623
	5768	C	10.186672	-23.497653	-5.540647	C	1	YLD124_chi.LOD1	0.096207
	5769	H	12.458317	-24.002684	-8.136756	H	1	YLD124_chi.LOD1	0.124941
	5770	C	8.938706	-23.398765	-6.448790	C	1	YLD124_chi.LOD1	0.409462
	5771	H	9.980090	-24.203723	-4.727425	H	1	YLD124_chi.LOD1	-0.020765
	5772	C	9.301960	-22.568936	-7.702405	C	1	YLD124_chi.LOD1	-0.014279
	5773	H	9.493141	-21.529669	-7.393016	H	1	YLD124_chi.LOD1	-0.02177
	5774	C	10.532176	-23.079333	-8.422090	C	1	YLD124_chi.LOD1	0.179445
	5775	C	10.856461	-22.985024	-9.739313	C	1	YLD124_chi.LOD1	-0.27725
	5776	H	11.792916	-23.375714	-10.137139	H	1	YLD124_chi.LOD1	0.132087
	5777	C	9.983453	-22.369318	-10.664540	C	1	YLD124_chi.LOD1	0.141075
	5778	C	10.276281	-22.250421	-12.007917	C	1	YLD124_chi.LOD1	-0.327608
	5779	H	9.050499	-21.959493	-10.295368	H	1	YLD124_chi.LOD1	-0.027316
	5780	C	9.476886	-21.641466	-12.999504	C	1	YLD124_chi.LOD1	0.260653
	5781	C	9.831699	-21.473181	-14.333232	C	1	YLD124_chi.LOD1	-0.287606
	5782	C	8.079474	-21.037774	-12.834673	C	1	YLD124_chi.LOD1	-0.056548
	5783	C	8.778271	-20.776100	-15.021165	C	1	YLD124_chi.LOD1	0.509074
	5784	C	11.063017	-21.918321	-14.877579	C	1	YLD124_chi.LOD1	0.396907
	5785	O	7.784341	-20.485321	-14.147919	O	1	YLD124_chi.LOD1	-0.366332
	5786	C	7.874585	-19.886293	-11.793955	C	1	YLD124_chi.LOD1	0.253806
	5787	C	6.877811	-22.127031	-12.631101	C	1	YLD124_chi.LOD1	0.598114
	5788	C	8.644165	-20.368217	-16.329980	C	1	YLD124_chi.LOD1	-0.43234
	5789	N	12.099657	-22.314334	-15.231248	N	1	YLD124_chi.LOD1	-0.430249
	5790	C	9.644259	-20.617224	-17.313611	C	1	YLD124_chi.LOD1	0.437474
	5791	C	7.470859	-19.668690	-16.741730	C	1	YLD124_chi.LOD1	0.49223
	5792	N	10.435703	-20.798777	-18.148603	N	1	YLD124_chi.LOD1	-0.451871
	5793	N	6.519549	-19.095172	-17.091186	N	1	YLD124_chi.LOD1	-0.482758
	5794	H	11.228271	-22.644429	-12.359512	H	1	YLD124_chi.LOD1	0.157364
	5795	H	8.438607	-22.534797	-8.375035	H	1	YLD124_chi.LOD1	0.040059
	5796	H	10.360499	-22.523838	-5.056744	H	1	YLD124_chi.LOD1	-0.024244
	5797	C	18.205281	-27.170565	-1.662626	C	1	YLD124_chi.LOD1	0.240322
	5798	C	16.905471	-26.807060	0.306403	C	1	YLD124_chi.LOD1	0.113854
	5799	C	16.318143	-27.995084	0.823039	C	1	YLD124_chi.LOD1	0.29958
	5800	C	18.486742	-28.569655	-1.678970	C	1	YLD124_chi.LOD1	0.285774
	5801	O	18.906700	-29.063100	-0.497279	O	1	YLD124_chi.LOD1	-0.61175
	5802	O	15.855900	-28.774300	-0.174322	O	1	YLD124_chi.LOD1	-0.599726
	5803	C	14.429035	-30.468799	-1.969267	C	1	YLD124_chi.LOD1	0.275329
	5804	C	21.648493	-29.735888	0.442741	C	1	YLD124_chi.LOD1	0.358728
	5805	C	22.388934	-30.860058	1.200636	C	1	YLD124_chi.LOD1	-0.337707
	5806	H	22.583630	-31.730251	0.561458	H	1	YLD124_chi.LOD1	0.059176
	5807	H	23.362542	-30.499153	1.562189	H	1	YLD124_chi.LOD1	0.075606
	5808	H	21.827667	-31.206863	2.077029	H	1	YLD124_chi.LOD1	0.056098
	5809	C	15.266239	-31.766881	-1.984386	C	1	YLD124_chi.LOD1	-0.311529
	5810	H	15.266556	-32.207034	-2.991870	H	1	YLD124_chi.LOD1	0.071087
	5811	H	16.313417	-31.587995	-1.710045	H	1	YLD124_chi.LOD1	0.058721
	5812	H	14.865777	-32.525896	-1.300861	H	1	YLD124_chi.LOD1	0.056179
	5813	C	21.456890	-28.529389	1.387362	C	1	YLD124_chi.LOD1	-0.279876
	5814	H	20.916277	-27.711450	0.896458	H	1	YLD124_chi.LOD1	0.048405
	5815	H	20.899751	-28.800735	2.291949	H	1	YLD124_chi.LOD1	0.047411
	5816	H	22.431933	-28.136453	1.709999	H	1	YLD124_chi.LOD1	0.054899
	5817	C	22.511325	-29.293481	-0.759123	C	1	YLD124_chi.LOD1	-0.273001
	5818	H	23.498254	-28.951141	-0.415416	H	1	YLD124_chi.LOD1	0.0526
	5819	H	22.682819	-30.109889	-1.471660	H	1	YLD124_chi.LOD1	0.034813
	5820	H	22.054750	-28.459850	-1.306244	H	1	YLD124_chi.LOD1	0.061699
	5821	C	12.979320	-30.795719	-2.388742	C	1	YLD124_chi.LOD1	-0.202774
	5822	H	12.512373	-31.528295	-1.718745	H	1	YLD124_chi.LOD1	0.027959
	5823	H	12.349967	-29.898853	-2.397021	H	1	YLD124_chi.LOD1	0.030756
	5824	H	12.963275	-31.224224	-3.401282	H	1	YLD124_chi.LOD1	0.045471
	5825	C	15.028548	-29.468050	-2.981079	C	1	YLD124_chi.LOD1	-0.266625
	5826	H	16.073868	-29.228512	-2.750344	H	1	YLD124_chi.LOD1	0.041283
	5827	H	15.008451	-29.892957	-3.995012	H	1	YLD124_chi.LOD1	0.059445
	5828	H	14.464725	-28.528863	-3.002118	H	1	YLD124_chi.LOD1	0.054675
	5829	C	14.536526	-30.988311	1.105918	C	1	YLD124_chi.LOD1	-0.410828
	5830	H	14.352273	-31.992702	0.708437	H	1	YLD124_chi.LOD1	0.093855
	5831	H	15.520179	-30.998996	1.591389	H	1	YLD124_chi.LOD1	0.090546
	5832	H	13.793578	-30.798993	1.890193	H	1	YLD124_chi.LOD1	0.070213
	5833	C	12.991989	-28.647985	0.091202	C	1	YLD124_chi.LOD1	-0.460074
	5834	H	12.965654	-28.281327	1.124687	H	1	YLD124_chi.LOD1	0.099819
	5835	H	12.985353	-27.774667	-0.570453	H	1	YLD124_chi.LOD1	0.10243
	5836	H	12.059527	-29.200368	-0.076412	H	1	YLD124_chi.LOD1	0.086844
	5837	C	19.052803	-31.260505	1.191701	C	1	YLD124_chi.LOD1	-0.477029
	5838	H	18.953290	-32.325898	0.956732	H	1	YLD124_chi.LOD1	0.107463
	5839	H	19.609565	-31.181178	2.132580	H	1	YLD124_chi.LOD1	0.106999
	5840	H	18.047034	-30.860129	1.365328	H	1	YLD124_chi.LOD1	0.090486
	5841	C	20.091273	-31.435767	-1.614220	C	1	YLD124_chi.LOD1	-0.470103
	5842	H	19.106831	-31.680483	-2.031561	H	1	YLD124_chi.LOD1	0.112461
	5843	H	20.689083	-30.983175	-2.413712	H	1	YLD124_chi.LOD1	0.098066
	5844	H	20.572858	-32.383475	-1.345187	H	1	YLD124_chi.LOD1	0.083138
	5845	Si	19.921900	-30.361600	-0.138812	Si	1	YLD124_chi.LOD1	0.770043
	5846	Si	14.454100	-29.712400	-0.206997	Si	1	YLD124_chi.LOD1	0.73989
	5847	H	17.533918	-29.041105	-1.960511	H	1	YLD124_chi.LOD1	-0.017464
	5848	H	17.913673	-26.712489	0.719673	H	1	YLD124_chi.LOD1	0.058354
	5849	H	17.062882	-28.552996	1.408482	H	1	YLD124_chi.LOD1	-0.04034
	5850	H	15.490865	-27.736364	1.500896	H	1	YLD124_chi.LOD1	-0.007901
	5851	H	16.337061	-25.950329	0.683285	H	1	YLD124_chi.LOD1	0.028132
	5852	H	18.288930	-26.761383	-2.674589	H	1	YLD124_chi.LOD1	-0.011538
	5853	H	19.035478	-26.746026	-1.090968	H	1	YLD124_chi.LOD1	0.020652
	5854	H	19.219351	-28.820800	-2.458549	H	1	YLD124_chi.LOD1	-0.064856
	5855	C	8.531178	-24.811125	-6.835155	C	1	YLD124_chi.LOD1	-0.299384
	5856	H	8.245675	-25.394082	-5.951311	H	1	YLD124_chi.LOD1	0.066854
	5857	H	7.652380	-24.745736	-7.487764	H	1	YLD124_chi.LOD1	0.072315
	5858	H	9.304632	-25.370681	-7.370401	H	1	YLD124_chi.LOD1	0.027971
	5859	C	7.880747	-22.695095	-5.659583	C	1	YLD124_chi.LOD1	-0.427943
	5860	H	7.613243	-23.250168	-4.752286	H	1	YLD124_chi.LOD1	0.089807
	5861	H	8.173682	-21.681584	-5.359353	H	1	YLD124_chi.LOD1	0.091303
	5862	H	6.978156	-22.614615	-6.277234	H	1	YLD124_chi.LOD1	0.089757
	5863	C	8.893692	-18.922066	-11.810974	C	1	YLD124_chi.LOD1	-0.158763
	5864	C	6.820142	-19.739975	-10.883548	C	1	YLD124_chi.LOD1	-0.147279
	5865	C	8.865126	-17.840319	-10.935433	C	1	YLD124_chi.LOD1	-0.065518
	5866	H	9.714129	-19.016551	-12.515942	H	1	YLD124_chi.LOD1	0.080042
	5867	C	6.799316	-18.658179	-10.000472	C	1	YLD124_chi.LOD1	-0.090746
	5868	H	6.006659	-20.452967	-10.852691	H	1	YLD124_chi.LOD1	0.09871
	5869	C	7.817072	-17.706510	-10.022476	C	1	YLD124_chi.LOD1	-0.09866
	5870	H	9.662208	-17.103116	-10.967314	H	1	YLD124_chi.LOD1	0.104949
	5871	H	7.793185	-16.863841	-9.337162	H	1	YLD124_chi.LOD1	0.102095
	5872	H	5.974219	-18.559901	-9.300639	H	1	YLD124_chi.LOD1	0.105434
	5873	F	5.662748	-21.686697	-12.991394	F	1	YLD124_chi.LOD1	-0.19867
	5874	F	6.801548	-22.539615	-11.355567	F	1	YLD124_chi.LOD1	-0.154403
	5875	F	7.170118	-23.203889	-13.394427	F	1	YLD124_chi.LOD1	-0.186491
	5876	C	-0.621565	-18.601298	-3.296428	C	2	YLD124_chi.LOD1	-0.150166
	5877	C	-1.323759	-19.618203	-2.720333	C	2	YLD124_chi.LOD1	-0.190723
	5878	H	-1.427107	-20.557882	-3.260742	H	2	YLD124_chi.LOD1	0.123134
	5879	H	-0.541605	-17.660451	-2.754425	H	2	YLD124_chi.LOD1	0.111619
	5880	N	1.924472	-18.409990	-8.398933	N	2	YLD124_chi.LOD1	-0.506176
	5881	C	1.333926	-18.477797	-7.148165	C	2	YLD124_chi.LOD1	0.404469
	5882	C	0.710963	-19.667182	-6.682343	C	2	YLD124_chi.LOD1	-0.281203
	5883	C	0.082300	-19.718861	-5.452102	C	2	YLD124_chi.LOD1	-0.112562
	5884	C	0.034458	-18.604118	-4.586997	C	2	YLD124_chi.LOD1	0.131862
	5885	C	0.677199	-17.434604	-5.042371	C	2	YLD124_chi.LOD1	-0.140167
	5886	C	1.309563	-17.363206	-6.272200	C	2	YLD124_chi.LOD1	-0.26473
	5887	H	0.719528	-20.563743	-7.289464	H	2	YLD124_chi.LOD1	0.177954
	5888	H	-0.380332	-20.655213	-5.154228	H	2	YLD124_chi.LOD1	0.098859
	5889	H	0.676868	-16.552247	-4.405936	H	2	YLD124_chi.LOD1	0.103807
	5890	H	1.787643	-16.432509	-6.551199	H	2	YLD124_chi.LOD1	0.161189
	5891	C	-1.994475	-19.568961	-1.449682	C	2	YLD124_chi.LOD1	0.100982
	5892	C	-2.724101	-20.657875	-1.029433	C	2	YLD124_chi.LOD1	-0.303623
	5893	C	-1.941343	-18.326370	-0.585825	C	2	YLD124_chi.LOD1	0.096207
	5894	H	-2.740032	-21.545623	-1.659932	H	2	YLD124_chi.LOD1	0.124941
	5895	C	-2.245725	-18.585558	0.908195	C	2	YLD124_chi.LOD1	0.409462
	5896	H	-0.956672	-17.851333	-0.671296	H	2	YLD124_chi.LOD1	-0.020765
	5897	C	-3.532044	-19.438074	1.011740	C	2	YLD124_chi.LOD1	-0.014279
	5898	H	-4.383864	-18.833138	0.664172	H	2	YLD124_chi.LOD1	-0.02177
	5899	C	-3.481377	-20.701333	0.178978	C	2	YLD124_chi.LOD1	0.179445
	5900	C	-4.115257	-21.887393	0.380092	C	2	YLD124_chi.LOD1	-0.27725
	5901	H	-4.016454	-22.724166	-0.311211	H	2	YLD124_chi.LOD1	0.132087
	5902	C	-4.940738	-22.092656	1.508688	C	2	YLD124_chi.LOD1	0.141075
	5903	C	-5.603733	-23.279205	1.747612	C	2	YLD124_chi.LOD1	-0.327608
	5904	H	-5.068562	-21.273523	2.206779	H	2	YLD124_chi.LOD1	-0.027316
	5905	C	-6.456992	-23.570047	2.834104	C	2	YLD124_chi.LOD1	0.260653
	5906	C	-7.168311	-24.751676	3.009661	C	2	YLD124_chi.LOD1	-0.287606
	5907	C	-6.789881	-22.672441	4.029035	C	2	YLD124_chi.LOD1	-0.056548
	5908	C	-7.956027	-24.658656	4.209551	C	2	YLD124_chi.LOD1	0.509074
	5909	C	-7.109378	-25.842261	2.105361	C	2	YLD124_chi.LOD1	0.396907
	5910	O	-7.772422	-23.442236	4.776665	O	2	YLD124_chi.LOD1	-0.366332
	5911	C	-7.416399	-21.263117	3.760701	C	2	YLD124_chi.LOD1	0.253806
	5912	C	-5.580806	-22.493265	5.114374	C	2	YLD124_chi.LOD1	0.598114
	5913	C	-8.822499	-25.542312	4.814306	C	2	YLD124_chi.LOD1	-0.43234
	5914	N	-6.999696	-26.681269	1.305008	N	2	YLD124_chi.LOD1	-0.430249
	5915	C	-9.087868	-26.836778	4.281710	C	2	YLD124_chi.LOD1	0.437474
	5916	C	-9.491875	-25.172474	6.018747	C	2	YLD124_chi.LOD1	0.49223
	5917	N	-9.334026	-27.902377	3.881132	N	2	YLD124_chi.LOD1	-0.451871
	5918	N	-10.046468	-24.883150	7.000965	N	2	YLD124_chi.LOD1	-0.482758
	5919	H	-5.485670	-24.084321	1.024427	H	2	YLD124_chi.LOD1	0.157364
	5920	H	-3.728496	-19.668298	2.064061	H	2	YLD124_chi.LOD1	0.040059
	5921	H	-2.663589	-17.594995	-0.980973	H	2	YLD124_chi.LOD1	-0.024244
	5922	C	2.020228	-19.533793	-9.261483	C	2	YLD124_chi.LOD1	0.240322
	5923	C	2.606237	-17.236604	-8.848374	C	2	YLD124_chi.LOD1	0.113854
	5924	C	3.903015	-16.981790	-8.321549	C	2	YLD124_chi.LOD1	0.29958
	5925	C	3.004449	-20.549225	-9.056927	C	2	YLD124_chi.LOD1	0.285774
	5926	O	2.597360	-21.608400	-8.329840	O	2	YLD124_chi.LOD1	-0.61175
	5927	O	4.119010	-17.698000	-7.200810	O	2	YLD124_chi.LOD1	-0.599726
	5928	C	5.244232	-18.976270	-4.923303	C	2	YLD124_chi.LOD1	0.275329
	5929	C	2.810439	-24.121049	-9.877523	C	2	YLD124_chi.LOD1	0.358728
	5930	C	1.355132	-24.639082	-9.865764	C	2	YLD124_chi.LOD1	-0.337707
	5931	H	0.626035	-23.821117	-9.810620	H	2	YLD124_chi.LOD1	0.059176
	5932	H	1.142836	-25.200961	-10.786691	H	2	YLD124_chi.LOD1	0.075606
	5933	H	1.164037	-25.315665	-9.023697	H	2	YLD124_chi.LOD1	0.056098
	5934	C	6.734123	-19.322821	-4.708174	C	2	YLD124_chi.LOD1	-0.311529
	5935	H	6.828318	-20.273788	-4.164532	H	2	YLD124_chi.LOD1	0.071087
	5936	H	7.273965	-19.438314	-5.656370	H	2	YLD124_chi.LOD1	0.058721
	5937	H	7.255467	-18.560005	-4.116571	H	2	YLD124_chi.LOD1	0.056179
	5938	C	3.773923	-25.320682	-10.008814	C	2	YLD124_chi.LOD1	-0.279876
	5939	H	4.822871	-25.001418	-10.001692	H	2	YLD124_chi.LOD1	0.048405
	5940	H	3.641000	-26.044755	-9.196187	H	2	YLD124_chi.LOD1	0.047411
	5941	H	3.595554	-25.854026	-10.953764	H	2	YLD124_chi.LOD1	0.054899
	5942	C	2.999905	-23.195909	-11.099366	C	2	YLD124_chi.LOD1	-0.273001
	5943	H	2.768480	-23.737447	-12.028096	H	2	YLD124_chi.LOD1	0.0526
	5944	H	2.341291	-22.319198	-11.064062	H	2	YLD124_chi.LOD1	0.034813
	5945	H	4.032789	-22.837446	-11.185382	H	2	YLD124_chi.LOD1	0.061699
	5946	C	4.548528	-18.855352	-3.550028	C	2	YLD124_chi.LOD1	-0.202774
	5947	H	5.007286	-18.080644	-2.923153	H	2	YLD124_chi.LOD1	0.027959
	5948	H	3.484837	-18.615111	-3.656643	H	2	YLD124_chi.LOD1	0.030756
	5949	H	4.622918	-19.804878	-3.000501	H	2	YLD124_chi.LOD1	0.045471
	5950	C	4.571496	-20.110887	-5.726265	C	2	YLD124_chi.LOD1	-0.266625
	5951	H	5.052615	-20.264907	-6.699976	H	2	YLD124_chi.LOD1	0.041283
	5952	H	4.640394	-21.060169	-5.175695	H	2	YLD124_chi.LOD1	0.059445
	5953	H	3.510157	-19.905030	-5.904015	H	2	YLD124_chi.LOD1	0.054675
	5954	C	6.725836	-16.711504	-6.482448	C	2	YLD124_chi.LOD1	-0.410828
	5955	H	7.293687	-17.498241	-6.991693	H	2	YLD124_chi.LOD1	0.093855
	5956	H	6.603917	-15.880638	-7.188258	H	2	YLD124_chi.LOD1	0.090546
	5957	H	7.340485	-16.340665	-5.653241	H	2	YLD124_chi.LOD1	0.070213
	5958	C	4.308447	-16.018457	-4.871855	C	2	YLD124_chi.LOD1	-0.460074
	5959	H	4.792130	-15.918282	-3.892447	H	2	YLD124_chi.LOD1	0.099819
	5960	H	4.351709	-15.040633	-5.364302	H	2	YLD124_chi.LOD1	0.10243
	5961	H	3.253149	-16.251490	-4.685447	H	2	YLD124_chi.LOD1	0.086844
	5962	C	4.984104	-22.979916	-7.976309	C	2	YLD124_chi.LOD1	-0.477029
	5963	H	5.497638	-23.947101	-7.944512	H	2	YLD124_chi.LOD1	0.107463
	5964	H	5.424511	-22.399764	-8.795453	H	2	YLD124_chi.LOD1	0.106999
	5965	H	5.203104	-22.453127	-7.040066	H	2	YLD124_chi.LOD1	0.090486
	5966	C	2.442476	-24.036457	-6.794973	C	2	YLD124_chi.LOD1	-0.470103
	5967	H	2.726605	-25.095804	-6.779485	H	2	YLD124_chi.LOD1	0.112461
	5968	H	2.735442	-23.598704	-5.833752	H	2	YLD124_chi.LOD1	0.098066
	5969	H	1.348044	-23.996210	-6.850221	H	2	YLD124_chi.LOD1	0.083138
	5970	Si	3.188630	-23.185400	-8.236680	Si	2	YLD124_chi.LOD1	0.770043
	5971	Si	5.104880	-17.322400	-5.884300	Si	2	YLD124_chi.LOD1	0.73989
	5972	H	3.406155	-20.893205	-10.021144	H	2	YLD124_chi.LOD1	-0.017464
	5973	H	2.665209	-17.273910	-9.939858	H	2	YLD124_chi.LOD1	0.058354
	5974	H	4.652871	-17.251714	-9.078849	H	2	YLD124_chi.LOD1	-0.04034
	5975	H	4.025152	-15.910413	-8.102353	H	2	YLD124_chi.LOD1	-0.007901
	5976	H	1.977011	-16.374431	-8.603729	H	2	YLD124_chi.LOD1	0.028132
	5977	H	1.074471	-20.080445	-9.189300	H	2	YLD124_chi.LOD1	-0.011538
	5978	H	2.087054	-19.171971	-10.291471	H	2	YLD124_chi.LOD1	0.020652
	5979	H	3.819084	-20.036321	-8.526989	H	2	YLD124_chi.LOD1	-0.064856
	5980	C	-1.058517	-19.324406	1.503677	C	2	YLD124_chi.LOD1	-0.299384
	5981	H	-0.150270	-18.711624	1.457675	H	2	YLD124_chi.LOD1	0.066854
	5982	H	-1.274064	-19.519605	2.560983	H	2	YLD124_chi.LOD1	0.072315
	5983	H	-0.840481	-20.283639	1.023933	H	2	YLD124_chi.LOD1	0.027971
	5984	C	-2.465417	-17.250404	1.545637	C	2	YLD124_chi.LOD1	-0.427943
	5985	H	-1.575572	-16.613460	1.472631	H	2	YLD124_chi.LOD1	0.089807
	5986	H	-3.308544	-16.701152	1.109046	H	2	YLD124_chi.LOD1	0.091303
	5987	H	-2.678549	-17.401449	2.610719	H	2	YLD124_chi.LOD1	0.089757
	5988	C	-8.418370	-21.268417	2.778547	C	2	YLD124_chi.LOD1	-0.158763
	5989	C	-7.079482	-20.051035	4.376691	C	2	YLD124_chi.LOD1	-0.147279
	5990	C	-9.064765	-20.090637	2.414439	C	2	YLD124_chi.LOD1	-0.065518
	5991	H	-8.696910	-22.200903	2.296977	H	2	YLD124_chi.LOD1	0.080042
	5992	C	-7.723856	-18.869789	4.002553	C	2	YLD124_chi.LOD1	-0.090746
	5993	H	-6.324824	-20.009615	5.151183	H	2	YLD124_chi.LOD1	0.09871
	5994	C	-8.716125	-18.883797	3.024193	C	2	YLD124_chi.LOD1	-0.09866
	5995	H	-9.840145	-20.117138	1.654237	H	2	YLD124_chi.LOD1	0.104949
	5996	H	-9.218205	-17.962968	2.740808	H	2	YLD124_chi.LOD1	0.102095
	5997	H	-7.450262	-17.938359	4.490197	H	2	YLD124_chi.LOD1	0.105434
	5998	F	-5.981950	-22.116692	6.338039	F	2	YLD124_chi.LOD1	-0.19867
	5999	F	-4.674239	-21.599142	4.688101	F	2	YLD124_chi.LOD1	-0.154403
	6000	F	-4.956530	-23.686531	5.233238	F	2	YLD124_chi.LOD1	-0.186491
	6001	C	30.378971	-4.039139	-15.333643	C	1	YLD124.LOD1	-0.158041
	6002	C	31.632909	-3.524696	-15.482166	C	1	YLD124.LOD1	-0.174247
	6003	H	32.137935	-3.642258	-16.439677	H	1	YLD124.LOD1	0.11023
	6004	H	29.888170	-3.928823	-14.368083	H	1	YLD124.LOD1	0.116594
	6005	N	27.155339	-6.825223	-19.130086	N	1	YLD124.LOD1	-0.477879
	6006	C	27.938612	-6.134052	-18.221069	C	1	YLD124.LOD1	0.383639
	6007	C	29.233199	-5.658686	-18.564510	C	1	YLD124.LOD1	-0.278193
	6008	C	30.025144	-4.993568	-17.647129	C	1	YLD124.LOD1	-0.102205
	6009	C	29.593256	-4.740735	-16.326939	C	1	YLD124.LOD1	0.126725
	6010	C	28.304248	-5.205450	-15.994020	C	1	YLD124.LOD1	-0.148338
	6011	C	27.496832	-5.873590	-16.899241	C	1	YLD124.LOD1	-0.248652
	6012	H	29.625385	-5.809971	-19.562400	H	1	YLD124.LOD1	0.176041
	6013	H	31.006384	-4.657592	-17.969187	H	1	YLD124.LOD1	0.098595
	6014	H	27.924640	-5.029850	-14.989695	H	1	YLD124.LOD1	0.105176
	6015	H	26.513746	-6.190959	-16.574540	H	1	YLD124.LOD1	0.157607
	6016	C	32.392670	-2.834643	-14.475663	C	1	YLD124.LOD1	0.13089
	6017	C	33.667233	-2.406077	-14.770239	C	1	YLD124.LOD1	-0.298955
	6018	C	31.823569	-2.590847	-13.093604	C	1	YLD124.LOD1	0.000678
	6019	H	34.053925	-2.581664	-15.773002	H	1	YLD124.LOD1	0.128536
	6020	C	32.487278	-1.414719	-12.339427	C	1	YLD124.LOD1	0.312314
	6021	H	30.744208	-2.408680	-13.157352	H	1	YLD124.LOD1	0.009572
	6022	C	34.023337	-1.571851	-12.428981	C	1	YLD124.LOD1	0.132423
	6023	H	34.319127	-2.464455	-11.856102	H	1	YLD124.LOD1	-0.011706
	6024	C	34.525578	-1.737345	-13.847442	C	1	YLD124.LOD1	0.094029
	6025	C	35.722565	-1.373414	-14.382477	C	1	YLD124.LOD1	-0.194272
	6026	H	35.979455	-1.575690	-15.422166	H	1	YLD124.LOD1	0.118653
	6027	C	36.696148	-0.702936	-13.608196	C	1	YLD124.LOD1	0.029031
	6028	C	37.908107	-0.286252	-14.120044	C	1	YLD124.LOD1	-0.298661
	6029	H	36.471914	-0.499754	-12.567574	H	1	YLD124.LOD1	0.063317
	6030	C	38.917486	0.422747	-13.433395	C	1	YLD124.LOD1	0.24754
	6031	C	40.091198	0.910443	-13.997138	C	1	YLD124.LOD1	-0.281071
	6032	C	38.938979	0.822457	-11.955339	C	1	YLD124.LOD1	-0.098074
	6033	C	40.836301	1.627296	-12.997278	C	1	YLD124.LOD1	0.526995
	6034	C	40.440287	0.727398	-15.359162	C	1	YLD124.LOD1	0.389724
	6035	O	40.146227	1.622885	-11.830901	O	1	YLD124.LOD1	-0.351072
	6036	C	39.215861	-0.402040	-10.918890	C	1	YLD124.LOD1	0.617997
	6037	C	37.757356	1.678149	-11.392472	C	1	YLD124.LOD1	0.253109
	6038	C	42.042299	2.290878	-13.045146	C	1	YLD124.LOD1	-0.451385
	6039	N	40.637997	0.530395	-16.489931	N	1	YLD124.LOD1	-0.428829
	6040	F	40.275398	-1.079128	-11.386555	F	1	YLD124.LOD1	-0.200469
	6041	F	39.483022	-0.044047	-9.652910	F	1	YLD124.LOD1	-0.158364
	6042	F	38.163244	-1.249655	-10.893858	F	1	YLD124.LOD1	-0.193377
	6043	C	36.743103	1.887784	-12.338731	C	1	YLD124.LOD1	-0.158716
	6044	C	37.641285	2.276408	-10.131401	C	1	YLD124.LOD1	-0.162688
	6045	C	42.828595	2.360649	-14.231166	C	1	YLD124.LOD1	0.447489
	6046	C	42.545175	2.940552	-11.878697	C	1	YLD124.LOD1	0.491336
	6047	H	36.822829	1.437105	-13.323488	H	1	YLD124.LOD1	0.085247
	6048	C	35.633835	2.670413	-12.031693	C	1	YLD124.LOD1	-0.074329
	6049	C	36.521948	3.053568	-9.823335	C	1	YLD124.LOD1	-0.055824
	6050	H	38.412132	2.153150	-9.381861	H	1	YLD124.LOD1	0.099228
	6051	N	43.502194	2.442750	-15.177775	N	1	YLD124.LOD1	-0.454587
	6052	N	42.966435	3.477167	-10.934975	N	1	YLD124.LOD1	-0.481156
	6053	H	34.861176	2.823244	-12.779628	H	1	YLD124.LOD1	0.111202
	6054	C	35.517163	3.253671	-10.768102	C	1	YLD124.LOD1	-0.106678
	6055	H	36.447770	3.511805	-8.841084	H	1	YLD124.LOD1	0.095951
	6056	H	34.651657	3.863925	-10.525548	H	1	YLD124.LOD1	0.103827
	6057	H	38.116320	-0.487910	-15.169397	H	1	YLD124.LOD1	0.159396
	6058	H	34.502093	-0.718941	-11.936951	H	1	YLD124.LOD1	-0.052081
	6059	H	31.939339	-3.511272	-12.500397	H	1	YLD124.LOD1	-0.003289
	6060	C	27.513480	-7.029749	-20.488363	C	1	YLD124.LOD1	0.198954
	6061	C	25.831249	-7.260158	-18.819281	C	1	YLD124.LOD1	0.115128
	6062	C	24.768777	-6.323345	-18.970453	C	1	YLD124.LOD1	0.306486
	6063	C	26.808082	-6.375806	-21.544229	C	1	YLD124.LOD1	0.28632
	6064	O	25.601400	-6.912860	-21.809200	O	1	YLD124.LOD1	-0.606883
	6065	O	25.237700	-5.060600	-18.994800	O	1	YLD124.LOD1	-0.600198
	6066	C	24.984766	-2.294394	-19.548943	C	1	YLD124.LOD1	0.267162
	6067	C	23.512114	-7.646875	-23.797459	C	1	YLD124.LOD1	0.369124
	6068	C	23.178945	-8.688364	-24.889051	C	1	YLD124.LOD1	-0.324271
	6069	H	23.076511	-9.700487	-24.478060	H	1	YLD124.LOD1	0.053925
	6070	H	22.224873	-8.438036	-25.374840	H	1	YLD124.LOD1	0.070181
	6071	H	23.942766	-8.721773	-25.675362	H	1	YLD124.LOD1	0.052098
	6072	C	24.413827	-0.951485	-19.041927	C	1	YLD124.LOD1	-0.316887
	6073	H	24.649149	-0.146760	-19.753068	H	1	YLD124.LOD1	0.07213
	6074	H	23.322258	-0.979611	-18.934954	H	1	YLD124.LOD1	0.059956
	6075	H	24.838247	-0.660910	-18.072860	H	1	YLD124.LOD1	0.057948
	6076	C	23.604837	-6.248525	-24.445605	C	1	YLD124.LOD1	-0.260833
	6077	H	23.850122	-5.474713	-23.708640	H	1	YLD124.LOD1	0.041714
	6078	H	24.368270	-6.211995	-25.231780	H	1	YLD124.LOD1	0.041636
	6079	H	22.645707	-5.975042	-24.908802	H	1	YLD124.LOD1	0.048242
	6080	C	22.372912	-7.638941	-22.755118	C	1	YLD124.LOD1	-0.256632
	6081	H	21.412733	-7.409982	-23.239912	H	1	YLD124.LOD1	0.046696
	6082	H	22.259653	-8.609032	-22.255689	H	1	YLD124.LOD1	0.030906
	6083	H	22.531211	-6.878555	-21.980817	H	1	YLD124.LOD1	0.051975
	6084	C	26.516155	-2.167282	-19.702003	C	1	YLD124.LOD1	-0.203727
	6085	H	27.001687	-1.902788	-18.754510	H	1	YLD124.LOD1	0.027457
	6086	H	26.965330	-3.100089	-20.060550	H	1	YLD124.LOD1	0.031775
	6087	H	26.762536	-1.377157	-20.425828	H	1	YLD124.LOD1	0.046776
	6088	C	24.368241	-2.617826	-20.927385	C	1	YLD124.LOD1	-0.249027
	6089	H	23.274174	-2.684022	-20.881189	H	1	YLD124.LOD1	0.037596
	6090	H	24.616034	-1.827723	-21.650816	H	1	YLD124.LOD1	0.055765
	6091	H	24.745594	-3.565937	-21.326263	H	1	YLD124.LOD1	0.04836
	6092	C	22.754065	-3.915816	-18.094776	C	1	YLD124.LOD1	-0.409962
	6093	H	22.260129	-4.100281	-19.055381	H	1	YLD124.LOD1	0.090944
	6094	H	22.529582	-4.764428	-17.436982	H	1	YLD124.LOD1	0.090896
	6095	H	22.288996	-3.029723	-17.645786	H	1	YLD124.LOD1	0.069902
	6096	C	25.311832	-3.391726	-16.649013	C	1	YLD124.LOD1	-0.458602
	6097	H	25.106395	-4.222201	-15.962486	H	1	YLD124.LOD1	0.097974
	6098	H	26.399483	-3.276143	-16.714861	H	1	YLD124.LOD1	0.103309
	6099	H	24.907612	-2.483604	-16.185363	H	1	YLD124.LOD1	0.085827
	6100	C	26.577300	-7.967793	-24.176501	C	1	YLD124.LOD1	-0.493974
	6101	H	26.699292	-6.950663	-24.564793	H	1	YLD124.LOD1	0.11158
	6102	H	27.520473	-8.252604	-23.696144	H	1	YLD124.LOD1	0.113577
	6103	H	26.423079	-8.637295	-25.030656	H	1	YLD124.LOD1	0.09477
	6104	C	25.153814	-9.728378	-22.208674	C	1	YLD124.LOD1	-0.483575
	6105	H	26.110645	-9.958564	-21.724390	H	1	YLD124.LOD1	0.116965
	6106	H	24.365990	-9.830048	-21.453698	H	1	YLD124.LOD1	0.100121
	6107	H	24.980149	-10.501340	-22.966850	H	1	YLD124.LOD1	0.088084
	6108	Si	25.205600	-8.063860	-22.977000	Si	1	YLD124.LOD1	0.763339
	6109	Si	24.560700	-3.682340	-18.295300	Si	1	YLD124.LOD1	0.748472
	6110	H	26.683529	-5.338499	-21.200280	H	1	YLD124.LOD1	-0.009815
	6111	H	25.615201	-8.147541	-19.420991	H	1	YLD124.LOD1	0.057511
	6112	H	24.240713	-6.540418	-19.910097	H	1	YLD124.LOD1	-0.045737
	6113	H	24.041835	-6.428120	-18.151062	H	1	YLD124.LOD1	-0.011652
	6114	H	25.830332	-7.588751	-17.774696	H	1	YLD124.LOD1	0.023801
	6115	H	28.584961	-6.818934	-20.571051	H	1	YLD124.LOD1	-0.001966
	6116	H	27.392318	-8.093486	-20.710689	H	1	YLD124.LOD1	0.031172
	6117	H	27.408852	-6.346397	-22.463774	H	1	YLD124.LOD1	-0.066029
	6118	C	32.037947	-0.118443	-13.004766	C	1	YLD124.LOD1	-0.185058
	6119	H	30.952572	0.011821	-12.917713	H	1	YLD124.LOD1	0.04722
	6120	H	32.516702	0.717927	-12.481550	H	1	YLD124.LOD1	0.027573
	6121	H	32.300919	-0.044722	-14.064571	H	1	YLD124.LOD1	0.00699
	6122	C	32.047003	-1.503051	-10.914975	C	1	YLD124.LOD1	-0.347891
	6123	H	30.958068	-1.414189	-10.818564	H	1	YLD124.LOD1	0.075067
	6124	H	32.351538	-2.440058	-10.432869	H	1	YLD124.LOD1	0.071859
	6125	H	32.498343	-0.675094	-10.355058	H	1	YLD124.LOD1	0.077505
	6126	C	-23.726959	0.880347	-4.257710	C	2	YLD124.LOD1	-0.158041
	6127	C	-23.045164	0.010743	-5.056468	C	2	YLD124.LOD1	-0.174247
	6128	H	-23.189406	0.065530	-6.134379	H	2	YLD124.LOD1	0.11023
	6129	H	-23.586741	0.808152	-3.180450	H	2	YLD124.LOD1	0.116594
	6130	N	-27.382048	5.010191	-5.724598	N	2	YLD124.LOD1	-0.477879
	6131	C	-26.481483	4.016410	-5.379737	C	2	YLD124.LOD1	0.383639
	6132	C	-25.853501	3.206857	-6.364696	C	2	YLD124.LOD1	-0.278193
	6133	C	-24.976246	2.196562	-6.017029	C	2	YLD124.LOD1	-0.102205
	6134	C	-24.647523	1.917994	-4.672524	C	2	YLD124.LOD1	0.126725
	6135	C	-25.265361	2.730390	-3.699576	C	2	YLD124.LOD1	-0.148338
	6136	C	-26.146613	3.746678	-4.028683	C	2	YLD124.LOD1	-0.248652
	6137	H	-26.052744	3.370222	-7.416407	H	2	YLD124.LOD1	0.176041
	6138	H	-24.531028	1.610437	-6.815573	H	2	YLD124.LOD1	0.098595
	6139	H	-25.039592	2.557818	-2.649408	H	2	YLD124.LOD1	0.105176
	6140	H	-26.573553	4.336498	-3.227155	H	2	YLD124.LOD1	0.157607
	6141	C	-22.138460	-1.014342	-4.616529	C	2	YLD124.LOD1	0.13089
	6142	C	-21.554068	-1.841498	-5.548865	C	2	YLD124.LOD1	-0.298955
	6143	C	-21.832868	-1.212499	-3.146581	C	2	YLD124.LOD1	0.000678
	6144	H	-21.778557	-1.675636	-6.601476	H	2	YLD124.LOD1	0.128536
	6145	C	-20.491879	-1.934172	-2.875459	C	2	YLD124.LOD1	0.312314
	6146	H	-21.827506	-0.245765	-2.629217	H	2	YLD124.LOD1	0.009572
	6147	C	-20.419343	-3.196857	-3.765712	C	2	YLD124.LOD1	0.132423
	6148	H	-21.186238	-3.910417	-3.426403	H	2	YLD124.LOD1	-0.011706
	6149	C	-20.662425	-2.909231	-5.231947	C	2	YLD124.LOD1	0.094029
	6150	C	-20.180194	-3.559062	-6.325973	C	2	YLD124.LOD1	-0.194272
	6151	H	-20.455004	-3.270955	-7.340535	H	2	YLD124.LOD1	0.118653
	6152	C	-19.285625	-4.645247	-6.196109	C	2	YLD124.LOD1	0.029031
	6153	C	-18.746754	-5.309575	-7.279041	C	2	YLD124.LOD1	-0.298661
	6154	H	-19.004788	-4.960866	-5.198124	H	2	YLD124.LOD1	0.063317
	6155	C	-17.818612	-6.372712	-7.242912	C	2	YLD124.LOD1	0.24754
	6156	C	-17.221701	-6.964731	-8.350370	C	2	YLD124.LOD1	-0.281071
	6157	C	-17.258226	-7.083101	-6.007520	C	2	YLD124.LOD1	-0.098074
	6158	C	-16.291693	-7.969073	-7.908600	C	2	YLD124.LOD1	0.526995
	6159	C	-17.499329	-6.582211	-9.687187	C	2	YLD124.LOD1	0.389724
	6160	O	-16.272456	-8.001445	-6.553890	O	2	YLD124.LOD1	-0.351072
	6161	C	-18.302253	-8.084911	-5.261297	C	2	YLD124.LOD1	0.617997
	6162	C	-16.537660	-6.229154	-4.913581	C	2	YLD124.LOD1	0.253109
	6163	C	-15.459660	-8.822773	-8.598512	C	2	YLD124.LOD1	-0.451385
	6164	N	-17.788232	-6.196466	-10.747505	N	2	YLD124.LOD1	-0.428829
	6165	F	-18.855763	-8.852809	-6.211947	F	2	YLD124.LOD1	-0.200469
	6166	F	-17.768583	-8.897596	-4.335564	F	2	YLD124.LOD1	-0.158364
	6167	F	-19.293860	-7.382012	-4.669919	F	2	YLD124.LOD1	-0.193377
	6168	C	-16.607798	-4.851638	-5.169694	C	2	YLD124.LOD1	-0.158716
	6169	C	-15.814661	-6.675056	-3.799969	C	2	YLD124.LOD1	-0.162688
	6170	C	-15.402086	-8.847931	-10.021827	C	2	YLD124.LOD1	0.447489
	6171	C	-14.614384	-9.724703	-7.886054	C	2	YLD124.LOD1	0.491336
	6172	H	-17.157930	-4.491125	-6.033754	H	2	YLD124.LOD1	0.085247
	6173	C	-15.977345	-3.938407	-4.329578	C	2	YLD124.LOD1	-0.074329
	6174	C	-15.191022	-5.755109	-2.953466	C	2	YLD124.LOD1	-0.055824
	6175	H	-15.722279	-7.730743	-3.580429	H	2	YLD124.LOD1	0.099228
	6176	N	-15.323109	-8.901336	-11.182626	N	2	YLD124.LOD1	-0.454587
	6177	N	-13.917495	-10.464326	-7.317433	N	2	YLD124.LOD1	-0.481156
	6178	H	-16.040836	-2.876191	-4.547370	H	2	YLD124.LOD1	0.111202
	6179	C	-15.268831	-4.388109	-3.213228	C	2	YLD124.LOD1	-0.106678
	6180	H	-14.632921	-6.117405	-2.094650	H	2	YLD124.LOD1	0.095951
	6181	H	-14.776937	-3.677205	-2.555203	H	2	YLD124.LOD1	0.103827
	6182	H	-19.029537	-4.975784	-8.275925	H	2	YLD124.LOD1	0.159396
	6183	H	-19.453388	-3.689543	-3.614229	H	2	YLD124.LOD1	-0.052081
	6184	H	-22.652559	-1.791961	-2.694024	H	2	YLD124.LOD1	-0.003289
	6185	C	-27.668996	5.372196	-7.066455	C	2	YLD124.LOD1	0.198954
	6186	C	-27.987093	5.877267	-4.764211	C	2	YLD124.LOD1	0.115128
	6187	C	-27.377044	7.128104	-4.445454	C	2	YLD124.LOD1	0.306486
	6188	C	-26.971845	6.475994	-7.635943	C	2	YLD124.LOD1	0.28632
	6189	O	-25.746200	6.615410	-7.094700	O	2	YLD124.LOD1	-0.606883
	6190	O	-26.149400	6.993240	-3.907140	O	2	YLD124.LOD1	-0.600198
	6191	C	-26.024648	8.978344	-1.890538	C	2	YLD124.LOD1	0.267162
	6192	C	-22.857602	7.059722	-6.532636	C	2	YLD124.LOD1	0.369124
	6193	C	-21.632014	7.869609	-7.011478	C	2	YLD124.LOD1	-0.324271
	6194	H	-21.774515	8.950062	-6.884527	H	2	YLD124.LOD1	0.053925
	6195	H	-20.741131	7.590057	-6.430886	H	2	YLD124.LOD1	0.070181
	6196	H	-21.400771	7.683949	-8.067357	H	2	YLD124.LOD1	0.052098
	6197	C	-25.713744	9.248905	-0.401721	C	2	YLD124.LOD1	-0.316887
	6198	H	-25.860687	10.313756	-0.171111	H	2	YLD124.LOD1	0.07213
	6199	H	-26.369682	8.679338	0.268424	H	2	YLD124.LOD1	0.059956
	6200	H	-24.676105	9.002553	-0.144283	H	2	YLD124.LOD1	0.057948
	6201	C	-22.567724	5.553517	-6.709811	C	2	YLD124.LOD1	-0.260833
	6202	H	-23.416099	4.936396	-6.391237	H	2	YLD124.LOD1	0.041714
	6203	H	-22.346014	5.299705	-7.753200	H	2	YLD124.LOD1	0.041636
	6204	H	-21.695844	5.256476	-6.109090	H	2	YLD124.LOD1	0.048242
	6205	C	-23.089367	7.350119	-5.033879	C	2	YLD124.LOD1	-0.256632
	6206	H	-22.192997	7.092041	-4.451378	H	2	YLD124.LOD1	0.046696
	6207	H	-23.304501	8.408891	-4.844003	H	2	YLD124.LOD1	0.030906
	6208	H	-23.918721	6.759990	-4.625580	H	2	YLD124.LOD1	0.051975
	6209	C	-25.084858	9.834569	-2.767127	C	2	YLD124.LOD1	-0.203727
	6210	H	-24.028334	9.612601	-2.572372	H	2	YLD124.LOD1	0.027457
	6211	H	-25.270404	9.673991	-3.834943	H	2	YLD124.LOD1	0.031775
	6212	H	-25.237024	10.903199	-2.557843	H	2	YLD124.LOD1	0.046776
	6213	C	-27.486913	9.379765	-2.182862	C	2	YLD124.LOD1	-0.249027
	6214	H	-28.196826	8.823823	-1.558001	H	2	YLD124.LOD1	0.037596
	6215	H	-27.637870	10.448755	-1.974324	H	2	YLD124.LOD1	0.055765
	6216	H	-27.752385	9.203419	-3.231118	H	2	YLD124.LOD1	0.04836
	6217	C	-26.879522	6.040953	-1.290108	C	2	YLD124.LOD1	-0.409962
	6218	H	-27.931098	6.318016	-1.424963	H	2	YLD124.LOD1	0.090944
	6219	H	-26.773898	4.987235	-1.576026	H	2	YLD124.LOD1	0.090896
	6220	H	-26.652222	6.107392	-0.219144	H	2	YLD124.LOD1	0.069902
	6221	C	-24.031671	6.583211	-1.999122	C	2	YLD124.LOD1	-0.458602
	6222	H	-23.888636	5.531054	-2.274295	H	2	YLD124.LOD1	0.097974
	6223	H	-23.327683	7.179972	-2.589849	H	2	YLD124.LOD1	0.103309
	6224	H	-23.748190	6.681157	-0.944089	H	2	YLD124.LOD1	0.085827
	6225	C	-24.189556	7.079476	-9.337534	C	2	YLD124.LOD1	-0.493974
	6226	H	-24.077206	5.997540	-9.467910	H	2	YLD124.LOD1	0.11158
	6227	H	-25.065213	7.392279	-9.917893	H	2	YLD124.LOD1	0.113577
	6228	H	-23.309228	7.563927	-9.775629	H	2	YLD124.LOD1	0.09477
	6229	C	-24.782967	9.308616	-7.420109	C	2	YLD124.LOD1	-0.483575
	6230	H	-25.676907	9.568015	-8.000303	H	2	YLD124.LOD1	0.116965
	6231	H	-24.956586	9.621111	-6.384157	H	2	YLD124.LOD1	0.100121
	6232	H	-23.956694	9.915465	-7.809298	H	2	YLD124.LOD1	0.088084
	6233	Si	-24.408200	7.520470	-7.580560	Si	2	YLD124.LOD1	0.763339
	6234	Si	-25.764200	7.116430	-2.268940	Si	2	YLD124.LOD1	0.748472
	6235	H	-26.884083	6.369037	-8.727125	H	2	YLD124.LOD1	-0.009815
	6236	H	-29.027264	6.037052	-5.062022	H	2	YLD124.LOD1	0.057511
	6237	H	-27.306285	7.675534	-5.396358	H	2	YLD124.LOD1	-0.045737
	6238	H	-28.010224	7.721516	-3.768868	H	2	YLD124.LOD1	-0.011652
	6239	H	-28.018888	5.336129	-3.812744	H	2	YLD124.LOD1	0.023801
	6240	H	-27.437019	4.502589	-7.690412	H	2	YLD124.LOD1	-0.001966
	6241	H	-28.747557	5.531046	-7.150833	H	2	YLD124.LOD1	0.031172
	6242	H	-27.565889	7.379757	-7.441841	H	2	YLD124.LOD1	-0.066029
	6243	C	-19.362670	-0.968083	-3.216630	C	2	YLD124.LOD1	-0.185058
	6244	H	-19.392387	-0.084580	-2.567689	H	2	YLD124.LOD1	0.04722
	6245	H	-18.409480	-1.480122	-3.038524	H	2	YLD124.LOD1	0.027573
	6246	H	-19.367828	-0.622209	-4.254956	H	2	YLD124.LOD1	0.00699
	6247	C	-20.487797	-2.324714	-1.433911	C	2	YLD124.LOD1	-0.347891
	6248	H	-20.557666	-1.450967	-0.774626	H	2	YLD124.LOD1	0.075067
	6249	H	-21.307051	-3.006793	-1.175568	H	2	YLD124.LOD1	0.071859
	6250	H	-19.543003	-2.834593	-1.210042	H	2	YLD124.LOD1	0.077505
	6251	C	-26.083358	-15.415028	-8.590898	C	3	YLD124.LOD1	-0.158041
	6252	C	-25.378510	-15.512004	-7.427774	C	3	YLD124.LOD1	-0.174247
	6253	H	-25.745864	-16.174634	-6.645679	H	3	YLD124.LOD1	0.11023
	6254	H	-25.715527	-14.739084	-9.361068	H	3	YLD124.LOD1	0.116594
	6255	N	-30.884354	-18.090228	-10.127381	N	3	YLD124.LOD1	-0.477879
	6256	C	-29.710813	-17.458336	-9.751801	C	3	YLD124.LOD1	0.383639
	6257	C	-29.109594	-17.696509	-8.486222	C	3	YLD124.LOD1	-0.278193
	6258	C	-27.953353	-17.043553	-8.101645	C	3	YLD124.LOD1	-0.102205
	6259	C	-27.301029	-16.115232	-8.941911	C	3	YLD124.LOD1	0.126725
	6260	C	-27.895790	-15.889837	-10.200400	C	3	YLD124.LOD1	-0.148338
	6261	C	-29.053596	-16.534234	-10.602884	C	3	YLD124.LOD1	-0.248652
	6262	H	-29.551252	-18.402498	-7.794124	H	3	YLD124.LOD1	0.176041
	6263	H	-27.544199	-17.266049	-7.120563	H	3	YLD124.LOD1	0.098595
	6264	H	-27.427010	-15.186822	-10.885689	H	3	YLD124.LOD1	0.105176
	6265	H	-29.445795	-16.318430	-11.588897	H	3	YLD124.LOD1	0.157607
	6266	C	-24.172081	-14.800653	-7.103790	C	3	YLD124.LOD1	0.13089
	6267	C	-23.597044	-14.979449	-5.865921	C	3	YLD124.LOD1	-0.298955
	6268	C	-23.536787	-13.844205	-8.091215	C	3	YLD124.LOD1	0.000678
	6269	H	-24.063403	-15.679611	-5.174417	H	3	YLD124.LOD1	0.128536
	6270	C	-22.030420	-13.594731	-7.843844	C	3	YLD124.LOD1	0.312314
	6271	H	-23.672788	-14.213781	-9.114536	H	3	YLD124.LOD1	0.009572
	6272	C	-21.820711	-13.271121	-6.346017	C	3	YLD124.LOD1	0.132423
	6273	H	-22.296977	-12.303092	-6.125753	H	3	YLD124.LOD1	-0.011706
	6274	C	-22.418811	-14.309299	-5.420745	C	3	YLD124.LOD1	0.094029
	6275	C	-22.018034	-14.682052	-4.174918	C	3	YLD124.LOD1	-0.194272
	6276	H	-22.555354	-15.429468	-3.591379	H	3	YLD124.LOD1	0.118653
	6277	C	-20.870014	-14.115988	-3.576139	C	3	YLD124.LOD1	0.029031
	6278	C	-20.409672	-14.489828	-2.330031	C	3	YLD124.LOD1	-0.298661
	6279	H	-20.323351	-13.361203	-4.129240	H	3	YLD124.LOD1	0.063317
	6280	C	-19.254603	-14.009347	-1.675840	C	3	YLD124.LOD1	0.24754
	6281	C	-18.762628	-14.468789	-0.459236	C	3	YLD124.LOD1	-0.281071
	6282	C	-18.295529	-12.915817	-2.154638	C	3	YLD124.LOD1	-0.098074
	6283	C	-17.539049	-13.778630	-0.150511	C	3	YLD124.LOD1	0.526995
	6284	C	-19.391433	-15.483006	0.306562	C	3	YLD124.LOD1	0.389724
	6285	O	-17.239924	-12.919438	-1.154986	O	3	YLD124.LOD1	-0.351072
	6286	C	-18.878872	-11.399516	-2.050114	C	3	YLD124.LOD1	0.617997
	6287	C	-17.610155	-13.077821	-3.550836	C	3	YLD124.LOD1	0.253109
	6288	C	-16.674190	-13.867873	0.917720	C	3	YLD124.LOD1	-0.451385
	6289	N	-19.976063	-16.323955	0.861134	N	3	YLD124.LOD1	-0.428829
	6290	F	-19.399142	-11.263832	-0.821014	F	3	YLD124.LOD1	-0.200469
	6291	F	-17.981458	-10.416925	-2.227321	F	3	YLD124.LOD1	-0.158364
	6292	F	-19.876296	-11.212345	-2.942970	F	3	YLD124.LOD1	-0.193377
	6293	C	-18.214939	-14.063869	-4.344568	C	3	YLD124.LOD1	-0.158716
	6294	C	-16.465076	-12.429913	-4.031144	C	3	YLD124.LOD1	-0.162688
	6295	C	-16.899860	-14.753538	2.010626	C	3	YLD124.LOD1	0.447489
	6296	C	-15.502262	-13.055041	0.955849	C	3	YLD124.LOD1	0.491336
	6297	H	-19.098658	-14.580631	-3.982335	H	3	YLD124.LOD1	0.085247
	6298	C	-17.693900	-14.391231	-5.593010	C	3	YLD124.LOD1	-0.074329
	6299	C	-15.950294	-12.754263	-5.288758	C	3	YLD124.LOD1	-0.055824
	6300	H	-15.959919	-11.677355	-3.439806	H	3	YLD124.LOD1	0.099228
	6301	N	-17.045268	-15.462754	2.922993	N	3	YLD124.LOD1	-0.454587
	6302	N	-14.540851	-12.399402	0.998891	N	3	YLD124.LOD1	-0.481156
	6303	H	-18.175061	-15.160081	-6.190604	H	3	YLD124.LOD1	0.111202
	6304	C	-16.559524	-13.732539	-6.072361	C	3	YLD124.LOD1	-0.106678
	6305	H	-15.060580	-12.243390	-5.646137	H	3	YLD124.LOD1	0.095951
	6306	H	-16.151644	-13.985336	-7.047077	H	3	YLD124.LOD1	0.103827
	6307	H	-20.962564	-15.256259	-1.789611	H	3	YLD124.LOD1	0.159396
	6308	H	-20.751338	-13.138030	-6.152411	H	3	YLD124.LOD1	-0.052081
	6309	H	-24.074222	-12.884326	-8.043539	H	3	YLD124.LOD1	-0.003289
	6310	C	-31.505195	-19.088483	-9.333420	C	3	YLD124.LOD1	0.198954
	6311	C	-31.454951	-17.884457	-11.419294	C	3	YLD124.LOD1	0.115128
	6312	C	-30.827059	-18.454016	-12.568801	C	3	YLD124.LOD1	0.306486
	6313	C	-31.057537	-20.434290	-9.468024	C	3	YLD124.LOD1	0.28632
	6314	O	-29.733500	-20.494600	-9.708740	O	3	YLD124.LOD1	-0.606883
	6315	O	-30.872100	-19.800400	-12.588200	O	3	YLD124.LOD1	-0.600198
	6316	C	-30.451561	-20.305057	-15.343445	C	3	YLD124.LOD1	0.267162
	6317	C	-26.821247	-21.099445	-9.808962	C	3	YLD124.LOD1	0.369124
	6318	C	-25.793670	-22.207930	-9.488614	C	3	YLD124.LOD1	-0.324271
	6319	H	-25.953521	-23.108327	-10.094858	H	3	YLD124.LOD1	0.053925
	6320	H	-24.774200	-21.853335	-9.698021	H	3	YLD124.LOD1	0.070181
	6321	H	-25.821843	-22.505211	-8.433316	H	3	YLD124.LOD1	0.052098
	6322	C	-30.908303	-21.142753	-16.558389	C	3	YLD124.LOD1	-0.316887
	6323	H	-30.315752	-20.878041	-17.445796	H	3	YLD124.LOD1	0.07213
	6324	H	-30.777809	-22.219294	-16.391693	H	3	YLD124.LOD1	0.059956
	6325	H	-31.961922	-20.967657	-16.809163	H	3	YLD124.LOD1	0.057948
	6326	C	-26.510179	-19.858012	-8.945160	C	3	YLD124.LOD1	-0.260833
	6327	H	-27.221884	-19.045039	-9.131222	H	3	YLD124.LOD1	0.041714
	6328	H	-26.541123	-20.087374	-7.873400	H	3	YLD124.LOD1	0.041636
	6329	H	-25.503256	-19.476614	-9.168579	H	3	YLD124.LOD1	0.048242
	6330	C	-26.689230	-20.716148	-11.298920	C	3	YLD124.LOD1	-0.256632
	6331	H	-25.665039	-20.380947	-11.518149	H	3	YLD124.LOD1	0.046696
	6332	H	-26.902736	-21.560499	-11.965869	H	3	YLD124.LOD1	0.030906
	6333	H	-27.361674	-19.893820	-11.571653	H	3	YLD124.LOD1	0.051975
	6334	C	-30.637228	-18.805942	-15.664255	C	3	YLD124.LOD1	-0.203727
	6335	H	-31.681221	-18.563678	-15.898408	H	3	YLD124.LOD1	0.027457
	6336	H	-30.324988	-18.171767	-14.827134	H	3	YLD124.LOD1	0.031775
	6337	H	-30.033755	-18.525956	-16.539671	H	3	YLD124.LOD1	0.046776
	6338	C	-28.955759	-20.578646	-15.074114	C	3	YLD124.LOD1	-0.249027
	6339	H	-28.763088	-21.640107	-14.874921	H	3	YLD124.LOD1	0.037596
	6340	H	-28.352970	-20.297369	-15.949639	H	3	YLD124.LOD1	0.055765
	6341	H	-28.587906	-20.003846	-14.216965	H	3	YLD124.LOD1	0.04836
	6342	C	-31.291215	-22.546201	-13.345384	C	3	YLD124.LOD1	-0.409962
	6343	H	-30.237669	-22.804713	-13.190552	H	3	YLD124.LOD1	0.090944
	6344	H	-31.831314	-22.783631	-12.420641	H	3	YLD124.LOD1	0.090896
	6345	H	-31.685302	-23.207923	-14.126321	H	3	YLD124.LOD1	0.069902
	6346	C	-33.279723	-20.430905	-14.037072	C	3	YLD124.LOD1	-0.458602
	6347	H	-33.853041	-20.658161	-13.129948	H	3	YLD124.LOD1	0.097974
	6348	H	-33.454968	-19.378311	-14.286102	H	3	YLD124.LOD1	0.103309
	6349	H	-33.702475	-21.039567	-14.845689	H	3	YLD124.LOD1	0.085827
	6350	C	-28.804741	-22.059422	-7.621212	C	3	YLD124.LOD1	-0.493974
	6351	H	-28.674838	-21.154558	-7.017431	H	3	YLD124.LOD1	0.11158
	6352	H	-29.811061	-22.446163	-7.423253	H	3	YLD124.LOD1	0.113577
	6353	H	-28.085122	-22.806315	-7.266394	H	3	YLD124.LOD1	0.09477
	6354	C	-29.014908	-23.198081	-10.388349	C	3	YLD124.LOD1	-0.483575
	6355	H	-30.036242	-23.533899	-10.171220	H	3	YLD124.LOD1	0.116965
	6356	H	-28.942167	-23.031835	-11.469119	H	3	YLD124.LOD1	0.100121
	6357	H	-28.341545	-24.027230	-10.140250	H	3	YLD124.LOD1	0.088084
	6358	Si	-28.603700	-21.708600	-9.400480	Si	3	YLD124.LOD1	0.763339
	6359	Si	-31.496100	-20.784900	-13.808300	Si	3	YLD124.LOD1	0.748472
	6360	H	-31.297792	-21.026061	-8.572533	H	3	YLD124.LOD1	-0.009815
	6361	H	-32.457798	-18.320879	-11.422892	H	3	YLD124.LOD1	0.057511
	6362	H	-31.252230	-18.055866	-13.501329	H	3	YLD124.LOD1	-0.045737
	6363	H	-29.778809	-18.123544	-12.516028	H	3	YLD124.LOD1	-0.011652
	6364	H	-31.587754	-16.806524	-11.559138	H	3	YLD124.LOD1	0.023801
	6365	H	-31.343388	-18.816938	-8.284881	H	3	YLD124.LOD1	-0.001966
	6366	H	-32.584479	-19.035566	-9.500724	H	3	YLD124.LOD1	0.031172
	6367	H	-31.606330	-20.877208	-10.310639	H	3	YLD124.LOD1	-0.066029
	6368	C	-21.275764	-14.861238	-8.232808	C	3	YLD124.LOD1	-0.185058
	6369	H	-21.397353	-15.078290	-9.300839	H	3	YLD124.LOD1	0.04722
	6370	H	-20.208200	-14.693656	-8.046526	H	3	YLD124.LOD1	0.027573
	6371	H	-21.577393	-15.751870	-7.672836	H	3	YLD124.LOD1	0.00699
	6372	C	-21.637281	-12.421165	-8.679794	C	3	YLD124.LOD1	-0.347891
	6373	H	-21.792302	-12.611838	-9.748712	H	3	YLD124.LOD1	0.075067
	6374	H	-22.187372	-11.508994	-8.418080	H	3	YLD124.LOD1	0.071859
	6375	H	-20.568997	-12.223954	-8.529442	H	3	YLD124.LOD1	0.077505
	6376	C	-18.125507	12.222769	-0.324584	C	1	YLD124_chi.LOD1	-0.150166
	6377	C	-16.765769	12.144877	-0.388632	C	1	YLD124_chi.LOD1	-0.190723
	6378	H	-16.289321	12.061692	-1.364233	H	1	YLD124_chi.LOD1	0.123134
	6379	H	-18.590887	12.286340	0.657624	H	1	YLD124_chi.LOD1	0.111619
	6380	N	-21.952750	12.077659	-4.553724	N	1	YLD124_chi.LOD1	-0.506176
	6381	C	-21.015251	12.147435	-3.536871	C	1	YLD124_chi.LOD1	0.404469
	6382	C	-19.620251	12.133392	-3.807961	C	1	YLD124_chi.LOD1	-0.281203
	6383	C	-18.686353	12.157165	-2.788818	C	1	YLD124_chi.LOD1	-0.112562
	6384	C	-19.061723	12.209803	-1.428792	C	1	YLD124_chi.LOD1	0.131862
	6385	C	-20.446516	12.250637	-1.166259	C	1	YLD124_chi.LOD1	-0.140167
	6386	C	-21.396440	12.225050	-2.173459	C	1	YLD124_chi.LOD1	-0.26473
	6387	H	-19.261117	12.104971	-4.829090	H	1	YLD124_chi.LOD1	0.177954
	6388	H	-17.634754	12.139219	-3.059609	H	1	YLD124_chi.LOD1	0.098859
	6389	H	-20.784954	12.302893	-0.133624	H	1	YLD124_chi.LOD1	0.103807
	6390	H	-22.442111	12.266114	-1.895099	H	1	YLD124_chi.LOD1	0.161189
	6391	C	-15.866242	12.124229	0.732647	C	1	YLD124_chi.LOD1	0.100982
	6392	C	-14.516152	11.972252	0.511614	C	1	YLD124_chi.LOD1	-0.303623
	6393	C	-16.384115	12.229251	2.151760	C	1	YLD124_chi.LOD1	0.096207
	6394	H	-14.163130	11.910135	-0.516684	H	1	YLD124_chi.LOD1	0.124941
	6395	C	-15.324819	12.702535	3.174412	C	1	YLD124_chi.LOD1	0.409462
	6396	H	-17.243386	12.909572	2.188626	H	1	YLD124_chi.LOD1	-0.020765
	6397	C	-14.036149	11.870950	2.974623	C	1	YLD124_chi.LOD1	-0.014279
	6398	H	-14.242069	10.828419	3.262850	H	1	YLD124_chi.LOD1	-0.02177
	6399	C	-13.537540	11.874051	1.545195	C	1	YLD124_chi.LOD1	0.179445
	6400	C	-12.268040	11.731867	1.079145	C	1	YLD124_chi.LOD1	-0.27725
	6401	H	-12.036578	11.727503	0.014130	H	1	YLD124_chi.LOD1	0.132087
	6402	C	-11.176934	11.582089	1.964772	C	1	YLD124_chi.LOD1	0.141075
	6403	C	-9.874899	11.431894	1.532693	C	1	YLD124_chi.LOD1	-0.327608
	6404	H	-11.378332	11.569257	3.029630	H	1	YLD124_chi.LOD1	-0.027316
	6405	C	-8.728198	11.261989	2.338493	C	1	YLD124_chi.LOD1	0.260653
	6406	C	-7.437442	11.040898	1.871471	C	1	YLD124_chi.LOD1	-0.287606
	6407	C	-8.648566	11.274526	3.867504	C	1	YLD124_chi.LOD1	-0.056548
	6408	C	-6.548526	10.877087	2.990345	C	1	YLD124_chi.LOD1	0.509074
	6409	C	-7.104078	10.973955	0.494883	C	1	YLD124_chi.LOD1	0.396907
	6410	O	-7.253233	10.968380	4.143627	O	1	YLD124_chi.LOD1	-0.366332
	6411	C	-9.513421	10.249410	4.675044	C	1	YLD124_chi.LOD1	0.253806
	6412	C	-8.832965	12.746851	4.552846	C	1	YLD124_chi.LOD1	0.598114
	6413	C	-5.194284	10.636437	3.064301	C	1	YLD124_chi.LOD1	-0.43234
	6414	N	-6.929018	10.930882	-0.655781	N	1	YLD124_chi.LOD1	-0.430249
	6415	C	-4.376631	10.510985	1.904376	C	1	YLD124_chi.LOD1	0.437474
	6416	C	-4.562584	10.503437	4.336616	C	1	YLD124_chi.LOD1	0.49223
	6417	N	-3.671984	10.400868	0.983558	N	1	YLD124_chi.LOD1	-0.451871
	6418	N	-4.034272	10.390729	5.368226	N	1	YLD124_chi.LOD1	-0.482758
	6419	H	-9.691288	11.421514	0.459694	H	1	YLD124_chi.LOD1	0.157364
	6420	H	-13.263630	12.232153	3.661443	H	1	YLD124_chi.LOD1	0.040059
	6421	H	-16.767597	11.243303	2.457602	H	1	YLD124_chi.LOD1	-0.024244
	6422	C	-21.622607	12.066859	-5.935709	C	1	YLD124_chi.LOD1	0.240322
	6423	C	-23.361593	12.153225	-4.318595	C	1	YLD124_chi.LOD1	0.113854
	6424	C	-24.104247	13.362627	-4.493106	C	1	YLD124_chi.LOD1	0.29958
	6425	C	-21.708755	13.272794	-6.689370	C	1	YLD124_chi.LOD1	0.285774
	6426	O	-21.037400	14.291700	-6.117200	O	1	YLD124_chi.LOD1	-0.61175
	6427	O	-24.747700	13.480200	-5.671100	O	1	YLD124_chi.LOD1	-0.599726
	6428	C	-26.878709	13.859937	-7.522155	C	1	YLD124_chi.LOD1	0.275329
	6429	C	-18.915520	16.161163	-5.245908	C	1	YLD124_chi.LOD1	0.358728
	6430	C	-20.030435	16.763488	-4.362401	C	1	YLD124_chi.LOD1	-0.337707
	6431	H	-20.642317	15.988535	-3.884134	H	1	YLD124_chi.LOD1	0.059176
	6432	H	-19.592774	17.372832	-3.558637	H	1	YLD124_chi.LOD1	0.075606
	6433	H	-20.702432	17.416440	-4.932868	H	1	YLD124_chi.LOD1	0.056098
	6434	C	-26.072386	13.675128	-8.826702	C	1	YLD124_chi.LOD1	-0.311529
	6435	H	-26.696721	13.196303	-9.594614	H	1	YLD124_chi.LOD1	0.071087
	6436	H	-25.728528	14.631363	-9.240490	H	1	YLD124_chi.LOD1	0.058721
	6437	H	-25.192002	13.036546	-8.682416	H	1	YLD124_chi.LOD1	0.056179
	6438	C	-18.067144	17.305961	-5.841185	C	1	YLD124_chi.LOD1	-0.279876
	6439	H	-17.272429	16.925189	-6.493652	H	1	YLD124_chi.LOD1	0.048405
	6440	H	-18.674655	18.004004	-6.429385	H	1	YLD124_chi.LOD1	0.047411
	6441	H	-17.588625	17.885783	-5.038672	H	1	YLD124_chi.LOD1	0.054899
	6442	C	-18.006758	15.275363	-4.366027	C	1	YLD124_chi.LOD1	-0.273001
	6443	H	-17.579208	15.865857	-3.542693	H	1	YLD124_chi.LOD1	0.0526
	6444	H	-18.552991	14.438427	-3.913468	H	1	YLD124_chi.LOD1	0.034813
	6445	H	-17.165570	14.860116	-4.934108	H	1	YLD124_chi.LOD1	0.061699
	6446	C	-27.348027	12.478492	-7.016325	C	1	YLD124_chi.LOD1	-0.202774
	6447	H	-26.505312	11.803641	-6.821364	H	1	YLD124_chi.LOD1	0.027959
	6448	H	-27.930772	12.564042	-6.092415	H	1	YLD124_chi.LOD1	0.030756
	6449	H	-27.985683	11.993610	-7.769582	H	1	YLD124_chi.LOD1	0.045471
	6450	C	-28.118539	14.733417	-7.812899	C	1	YLD124_chi.LOD1	-0.266625
	6451	H	-27.842360	15.717401	-8.211410	H	1	YLD124_chi.LOD1	0.041283
	6452	H	-28.759974	14.247452	-8.562172	H	1	YLD124_chi.LOD1	0.059445
	6453	H	-28.720660	14.892239	-6.911434	H	1	YLD124_chi.LOD1	0.054675
	6454	C	-26.764603	15.336251	-4.794285	C	1	YLD124_chi.LOD1	-0.410828
	6455	H	-26.485315	16.361475	-4.526599	H	1	YLD124_chi.LOD1	0.093855
	6456	H	-27.836624	15.334506	-5.026958	H	1	YLD124_chi.LOD1	0.090546
	6457	H	-26.628428	14.710636	-3.903800	H	1	YLD124_chi.LOD1	0.070213
	6458	C	-24.777163	16.080394	-6.897055	C	1	YLD124_chi.LOD1	-0.460074
	6459	H	-24.560142	15.921829	-7.960532	H	1	YLD124_chi.LOD1	0.099819
	6460	H	-25.292376	17.042894	-6.803967	H	1	YLD124_chi.LOD1	0.10243
	6461	H	-23.812391	16.167552	-6.382929	H	1	YLD124_chi.LOD1	0.086844
	6462	C	-18.554294	13.839985	-7.267715	C	1	YLD124_chi.LOD1	-0.477029
	6463	H	-18.844015	12.853517	-6.889407	H	1	YLD124_chi.LOD1	0.107463
	6464	H	-18.563734	13.788812	-8.362622	H	1	YLD124_chi.LOD1	0.106999
	6465	H	-17.521617	14.029969	-6.952273	H	1	YLD124_chi.LOD1	0.090486
	6466	C	-20.192084	16.213753	-8.082457	C	1	YLD124_chi.LOD1	-0.470103
	6467	H	-19.423156	16.213405	-8.864719	H	1	YLD124_chi.LOD1	0.112461
	6468	H	-21.138504	15.911225	-8.545241	H	1	YLD124_chi.LOD1	0.098066
	6469	H	-20.311354	17.250925	-7.747044	H	1	YLD124_chi.LOD1	0.083138
	6470	Si	-19.694000	15.140800	-6.682420	Si	1	YLD124_chi.LOD1	0.770043
	6471	Si	-25.774800	14.708300	-6.203060	Si	1	YLD124_chi.LOD1	0.73989
	6472	H	-21.353687	13.126565	-7.719879	H	1	YLD124_chi.LOD1	-0.017464
	6473	H	-23.856309	11.464118	-5.008953	H	1	YLD124_chi.LOD1	0.058354
	6474	H	-24.819003	13.503384	-3.669724	H	1	YLD124_chi.LOD1	-0.04034
	6475	H	-23.343405	14.153148	-4.409374	H	1	YLD124_chi.LOD1	-0.007901
	6476	H	-23.543831	11.763326	-3.311676	H	1	YLD124_chi.LOD1	0.028132
	6477	H	-20.575604	11.755736	-6.009743	H	1	YLD124_chi.LOD1	-0.011538
	6478	H	-22.210647	11.280399	-6.417315	H	1	YLD124_chi.LOD1	0.020652
	6479	H	-22.776582	13.526405	-6.743787	H	1	YLD124_chi.LOD1	-0.064856
	6480	C	-15.060488	14.177703	2.921747	C	1	YLD124_chi.LOD1	-0.299384
	6481	H	-15.965201	14.774116	3.090020	H	1	YLD124_chi.LOD1	0.066854
	6482	H	-14.302130	14.515605	3.638110	H	1	YLD124_chi.LOD1	0.072315
	6483	H	-14.693537	14.401781	1.915289	H	1	YLD124_chi.LOD1	0.027971
	6484	C	-15.890253	12.448823	4.535772	C	1	YLD124_chi.LOD1	-0.427943
	6485	H	-16.816999	13.011119	4.702559	H	1	YLD124_chi.LOD1	0.089807
	6486	H	-16.102631	11.388639	4.720325	H	1	YLD124_chi.LOD1	0.091303
	6487	H	-15.161657	12.780692	5.285206	H	1	YLD124_chi.LOD1	0.089757
	6488	C	-9.507811	8.955354	4.132838	C	1	YLD124_chi.LOD1	-0.158763
	6489	C	-10.264360	10.494856	5.831740	C	1	YLD124_chi.LOD1	-0.147279
	6490	C	-10.239774	7.931230	4.726949	C	1	YLD124_chi.LOD1	-0.065518
	6491	H	-8.924592	8.746550	3.241052	H	1	YLD124_chi.LOD1	0.080042
	6492	C	-11.004689	9.467084	6.420074	C	1	YLD124_chi.LOD1	-0.090746
	6493	H	-10.279186	11.475194	6.289758	H	1	YLD124_chi.LOD1	0.09871
	6494	C	-10.995481	8.185304	5.873320	C	1	YLD124_chi.LOD1	-0.09866
	6495	H	-10.219083	6.935616	4.293188	H	1	YLD124_chi.LOD1	0.104949
	6496	H	-11.568701	7.388002	6.338126	H	1	YLD124_chi.LOD1	0.102095
	6497	H	-11.581832	9.674638	7.316756	H	1	YLD124_chi.LOD1	0.105434
	6498	F	-8.755161	13.632236	3.547797	F	1	YLD124_chi.LOD1	-0.19867
	6499	F	-7.878098	13.055944	5.444877	F	1	YLD124_chi.LOD1	-0.154403
	6500	F	-10.030214	12.913302	5.158338	F	1	YLD124_chi.LOD1	-0.186491
	6501	C	-6.722424	-12.017515	-4.664825	C	2	YLD124_chi.LOD1	-0.150166
	6502	C	-5.999772	-12.828342	-5.489077	C	2	YLD124_chi.LOD1	-0.190723
	6503	H	-6.071967	-13.907242	-5.360694	H	2	YLD124_chi.LOD1	0.123134
	6504	H	-6.626949	-10.940304	-4.790736	H	2	YLD124_chi.LOD1	0.111619
	6505	N	-10.180241	-13.417700	-0.347714	N	2	YLD124_chi.LOD1	-0.506176
	6506	C	-9.367020	-13.088756	-1.419269	C	2	YLD124_chi.LOD1	0.404469
	6507	C	-8.755845	-14.087717	-2.224410	C	2	YLD124_chi.LOD1	-0.281203
	6508	C	-7.908074	-13.757326	-3.265327	C	2	YLD124_chi.LOD1	-0.112562
	6509	C	-7.612591	-12.416712	-3.595158	C	2	YLD124_chi.LOD1	0.131862
	6510	C	-8.242581	-11.429088	-2.810330	C	2	YLD124_chi.LOD1	-0.140167
	6511	C	-9.092436	-11.740774	-1.762446	C	2	YLD124_chi.LOD1	-0.26473
	6512	H	-8.947186	-15.136515	-2.034933	H	2	YLD124_chi.LOD1	0.177954
	6513	H	-7.467357	-14.565958	-3.840996	H	2	YLD124_chi.LOD1	0.098859
	6514	H	-8.054714	-10.380932	-3.033219	H	2	YLD124_chi.LOD1	0.103807
	6515	H	-9.545062	-10.927908	-1.208391	H	2	YLD124_chi.LOD1	0.161189
	6516	C	-5.095621	-12.396424	-6.519999	C	2	YLD124_chi.LOD1	0.100982
	6517	C	-4.381397	-13.336261	-7.228014	C	2	YLD124_chi.LOD1	-0.303623
	6518	C	-4.889734	-10.924969	-6.812466	C	2	YLD124_chi.LOD1	0.096207
	6519	H	-4.552607	-14.389421	-7.010253	H	2	YLD124_chi.LOD1	0.124941
	6520	C	-4.323955	-10.637211	-8.222789	C	2	YLD124_chi.LOD1	0.409462
	6521	H	-5.834604	-10.381964	-6.690365	H	2	YLD124_chi.LOD1	-0.020765
	6522	C	-3.108340	-11.561559	-8.467705	C	2	YLD124_chi.LOD1	-0.014279
	6523	H	-2.296825	-11.263535	-7.785816	H	2	YLD124_chi.LOD1	-0.02177
	6524	C	-3.411355	-13.025149	-8.226934	C	2	YLD124_chi.LOD1	0.179445
	6525	C	-2.840129	-14.123316	-8.789669	C	2	YLD124_chi.LOD1	-0.27725
	6526	H	-3.131527	-15.136544	-8.513433	H	2	YLD124_chi.LOD1	0.132087
	6527	C	-1.830647	-14.000189	-9.771028	C	2	YLD124_chi.LOD1	0.141075
	6528	C	-1.223684	-15.088621	-10.363868	C	2	YLD124_chi.LOD1	-0.327608
	6529	H	-1.510849	-13.004666	-10.056180	H	2	YLD124_chi.LOD1	-0.027316
	6530	C	-0.201437	-15.063687	-11.337262	C	2	YLD124_chi.LOD1	0.260653
	6531	C	0.441001	-16.178672	-11.863687	C	2	YLD124_chi.LOD1	-0.287606
	6532	C	0.420304	-13.836956	-12.010269	C	2	YLD124_chi.LOD1	-0.056548
	6533	C	1.449283	-15.750490	-12.795841	C	2	YLD124_chi.LOD1	0.509074
	6534	C	0.128921	-17.510532	-11.490373	C	2	YLD124_chi.LOD1	0.396907
	6535	O	1.468534	-14.397068	-12.849562	O	2	YLD124_chi.LOD1	-0.366332
	6536	C	1.086058	-12.741433	-11.111628	C	2	YLD124_chi.LOD1	0.253806
	6537	C	-0.543586	-13.086814	-13.096367	C	2	YLD124_chi.LOD1	0.598114
	6538	C	2.348057	-16.452290	-13.568521	C	2	YLD124_chi.LOD1	-0.43234
	6539	N	-0.194243	-18.565719	-11.117983	N	2	YLD124_chi.LOD1	-0.430249
	6540	C	2.409680	-17.875636	-13.565179	C	2	YLD124_chi.LOD1	0.437474
	6541	C	3.261878	-15.752468	-14.411552	C	2	YLD124_chi.LOD1	0.49223
	6542	N	2.494795	-19.036912	-13.592587	N	2	YLD124_chi.LOD1	-0.451871
	6543	N	4.014722	-15.194237	-15.102667	N	2	YLD124_chi.LOD1	-0.482758
	6544	H	-1.537716	-16.082286	-10.048972	H	2	YLD124_chi.LOD1	0.157364
	6545	H	-2.730911	-11.399842	-9.482777	H	2	YLD124_chi.LOD1	0.040059
	6546	H	-4.204809	-10.510906	-6.056078	H	2	YLD124_chi.LOD1	-0.024244
	6547	C	-10.541001	-14.747827	-0.001356	C	2	YLD124_chi.LOD1	0.240322
	6548	C	-10.850790	-12.423312	0.430669	C	2	YLD124_chi.LOD1	0.113854
	6549	C	-12.032991	-11.816400	-0.084150	C	2	YLD124_chi.LOD1	0.29958
	6550	C	-11.829629	-15.248872	-0.346816	C	2	YLD124_chi.LOD1	0.285774
	6551	O	-12.084400	-15.176300	-1.668210	O	2	YLD124_chi.LOD1	-0.61175
	6552	O	-11.853900	-11.297500	-1.314690	O	2	YLD124_chi.LOD1	-0.599726
	6553	C	-11.877551	-9.761618	-3.700791	C	2	YLD124_chi.LOD1	0.275329
	6554	C	-12.296989	-15.713414	-4.589557	C	2	YLD124_chi.LOD1	0.358728
	6555	C	-11.308940	-16.446227	-5.523988	C	2	YLD124_chi.LOD1	-0.337707
	6556	H	-11.535100	-17.516621	-5.606429	H	2	YLD124_chi.LOD1	0.059176
	6557	H	-11.359681	-16.025166	-6.538393	H	2	YLD124_chi.LOD1	0.075606
	6558	H	-10.270066	-16.348310	-5.185592	H	2	YLD124_chi.LOD1	0.056098
	6559	C	-11.320371	-8.410179	-4.200107	C	2	YLD124_chi.LOD1	-0.311529
	6560	H	-11.197868	-8.430055	-5.292515	H	2	YLD124_chi.LOD1	0.071087
	6561	H	-11.990356	-7.573514	-3.965676	H	2	YLD124_chi.LOD1	0.058721
	6562	H	-10.337268	-8.183015	-3.769312	H	2	YLD124_chi.LOD1	0.056179
	6563	C	-11.949295	-14.209040	-4.564542	C	2	YLD124_chi.LOD1	-0.279876
	6564	H	-12.614789	-13.649750	-3.896273	H	2	YLD124_chi.LOD1	0.048405
	6565	H	-10.919212	-14.031275	-4.233421	H	2	YLD124_chi.LOD1	0.047411
	6566	H	-12.048246	-13.775909	-5.570429	H	2	YLD124_chi.LOD1	0.054899
	6567	C	-13.727570	-15.883285	-5.145671	C	2	YLD124_chi.LOD1	-0.273001
	6568	H	-13.788812	-15.487426	-6.169832	H	2	YLD124_chi.LOD1	0.0526
	6569	H	-14.036136	-16.935289	-5.187078	H	2	YLD124_chi.LOD1	0.034813
	6570	H	-14.467308	-15.339110	-4.546166	H	2	YLD124_chi.LOD1	0.061699
	6571	C	-10.895952	-10.888896	-4.088370	C	2	YLD124_chi.LOD1	-0.202774
	6572	H	-9.899483	-10.733306	-3.656578	H	2	YLD124_chi.LOD1	0.027959
	6573	H	-11.256471	-11.869088	-3.757053	H	2	YLD124_chi.LOD1	0.030756
	6574	H	-10.774635	-10.929447	-5.180501	H	2	YLD124_chi.LOD1	0.045471
	6575	C	-13.238970	-10.029315	-4.378697	C	2	YLD124_chi.LOD1	-0.266625
	6576	H	-13.965964	-9.235967	-4.165649	H	2	YLD124_chi.LOD1	0.041283
	6577	H	-13.118547	-10.075387	-5.470661	H	2	YLD124_chi.LOD1	0.059445
	6578	H	-13.672912	-10.980441	-4.050877	H	2	YLD124_chi.LOD1	0.054675
	6579	C	-13.775590	-9.155738	-1.305724	C	2	YLD124_chi.LOD1	-0.410828
	6580	H	-14.071169	-8.234543	-1.820286	H	2	YLD124_chi.LOD1	0.093855
	6581	H	-14.526519	-9.920955	-1.537924	H	2	YLD124_chi.LOD1	0.090546
	6582	H	-13.832258	-8.967433	-0.226729	H	2	YLD124_chi.LOD1	0.070213
	6583	C	-10.860292	-8.616872	-0.981903	C	2	YLD124_chi.LOD1	-0.460074
	6584	H	-10.816885	-8.798865	0.098938	H	2	YLD124_chi.LOD1	0.099819
	6585	H	-9.854105	-8.776029	-1.385356	H	2	YLD124_chi.LOD1	0.10243
	6586	H	-11.110620	-7.557915	-1.118480	H	2	YLD124_chi.LOD1	0.086844
	6587	C	-10.598258	-17.337051	-2.572404	C	2	YLD124_chi.LOD1	-0.477029
	6588	H	-9.753964	-16.810599	-3.030869	H	2	YLD124_chi.LOD1	0.107463
	6589	H	-10.376069	-17.449476	-1.504920	H	2	YLD124_chi.LOD1	0.106999
	6590	H	-10.644922	-18.341121	-3.010223	H	2	YLD124_chi.LOD1	0.090486
	6591	C	-13.588571	-17.508257	-2.427960	C	2	YLD124_chi.LOD1	-0.470103
	6592	H	-13.434465	-18.038428	-1.480144	H	2	YLD124_chi.LOD1	0.112461
	6593	H	-14.538720	-16.966531	-2.356189	H	2	YLD124_chi.LOD1	0.098066
	6594	H	-13.706679	-18.269382	-3.208468	H	2	YLD124_chi.LOD1	0.083138
	6595	Si	-12.161000	-16.421600	-2.803300	Si	2	YLD124_chi.LOD1	0.770043
	6596	Si	-12.095500	-9.698840	-1.796360	Si	2	YLD124_chi.LOD1	0.73989
	6597	H	-11.962497	-16.283822	0.000501	H	2	YLD124_chi.LOD1	-0.017464
	6598	H	-11.049508	-12.843394	1.420745	H	2	YLD124_chi.LOD1	0.058354
	6599	H	-12.793199	-12.609363	-0.128186	H	2	YLD124_chi.LOD1	-0.04034
	6600	H	-12.409090	-11.034910	0.593078	H	2	YLD124_chi.LOD1	-0.007901
	6601	H	-10.149336	-11.596287	0.582693	H	2	YLD124_chi.LOD1	0.028132
	6602	H	-9.834418	-15.410704	-0.511090	H	2	YLD124_chi.LOD1	-0.011538
	6603	H	-10.363314	-14.876498	1.070150	H	2	YLD124_chi.LOD1	0.020652
	6604	H	-12.552635	-14.625436	0.197356	H	2	YLD124_chi.LOD1	-0.064856
	6605	C	-5.425939	-10.914983	-9.231926	C	2	YLD124_chi.LOD1	-0.299384
	6606	H	-6.278251	-10.242105	-9.079187	H	2	YLD124_chi.LOD1	0.066854
	6607	H	-5.026276	-10.722118	-10.234688	H	2	YLD124_chi.LOD1	0.072315
	6608	H	-5.802422	-11.942479	-9.213619	H	2	YLD124_chi.LOD1	0.027971
	6609	C	-3.887752	-9.206443	-8.233186	C	2	YLD124_chi.LOD1	-0.427943
	6610	H	-4.725459	-8.524407	-8.043645	H	2	YLD124_chi.LOD1	0.089807
	6611	H	-3.105967	-8.991903	-7.494308	H	2	YLD124_chi.LOD1	0.091303
	6612	H	-3.485693	-8.969934	-9.225683	H	2	YLD124_chi.LOD1	0.089757
	6613	C	1.877442	-13.263880	-10.077529	C	2	YLD124_chi.LOD1	-0.158763
	6614	C	0.964358	-11.351347	-11.233902	C	2	YLD124_chi.LOD1	-0.147279
	6615	C	2.527116	-12.419274	-9.181911	C	2	YLD124_chi.LOD1	-0.065518
	6616	H	1.988520	-14.339008	-9.973667	H	2	YLD124_chi.LOD1	0.080042
	6617	C	1.610384	-10.507099	-10.328123	C	2	YLD124_chi.LOD1	-0.090746
	6618	H	0.377756	-10.910437	-12.029238	H	2	YLD124_chi.LOD1	0.09871
	6619	C	2.392358	-11.034665	-9.302368	C	2	YLD124_chi.LOD1	-0.09866
	6620	H	3.137845	-12.844097	-8.390482	H	2	YLD124_chi.LOD1	0.104949
	6621	H	2.897320	-10.373360	-8.603793	H	2	YLD124_chi.LOD1	0.102095
	6622	H	1.505234	-9.431338	-10.437173	H	2	YLD124_chi.LOD1	0.105434
	6623	F	-1.678399	-13.801451	-13.136067	F	2	YLD124_chi.LOD1	-0.19867
	6624	F	-0.028478	-13.068274	-14.336266	F	2	YLD124_chi.LOD1	-0.154403
	6625	F	-0.866834	-11.816147	-12.766746	F	2	YLD124_chi.LOD1	-0.186491
	6626	C	-13.172961	-4.712173	-13.407564	C	1	YLD124.LOD1	-0.158041
	6627	C	-13.308522	-4.181231	-12.159048	C	1	YLD124.LOD1	-0.174247
	6628	H	-13.258034	-4.846071	-11.298154	H	1	YLD124.LOD1	0.11023
	6629	H	-13.239122	-4.041202	-14.262423	H	1	YLD124.LOD1	0.116594
	6630	N	-12.297769	-10.139646	-14.938455	N	1	YLD124.LOD1	-0.477879
	6631	C	-12.493919	-8.823216	-14.556244	C	1	YLD124.LOD1	0.383639
	6632	C	-12.601431	-8.453752	-13.188100	C	1	YLD124.LOD1	-0.278193
	6633	C	-12.825454	-7.143188	-12.809442	C	1	YLD124.LOD1	-0.102205
	6634	C	-12.950076	-6.100400	-13.753061	C	1	YLD124.LOD1	0.126725
	6635	C	-12.832676	-6.470385	-15.108666	C	1	YLD124.LOD1	-0.148338
	6636	C	-12.608510	-7.777625	-15.506952	C	1	YLD124.LOD1	-0.248652
	6637	H	-12.507395	-9.200812	-12.409935	H	1	YLD124.LOD1	0.176041
	6638	H	-12.901275	-6.924718	-11.748331	H	1	YLD124.LOD1	0.098595
	6639	H	-12.916250	-5.701001	-15.873303	H	1	YLD124.LOD1	0.105176
	6640	H	-12.518303	-7.984013	-16.566141	H	1	YLD124.LOD1	0.157607
	6641	C	-13.533357	-2.796662	-11.844600	C	1	YLD124.LOD1	0.13089
	6642	C	-13.687512	-2.421606	-10.529107	C	1	YLD124.LOD1	-0.298955
	6643	C	-13.624414	-1.749873	-12.935169	C	1	YLD124.LOD1	0.000678
	6644	H	-13.607928	-3.187774	-9.759336	H	1	YLD124.LOD1	0.128536
	6645	C	-13.322022	-0.311796	-12.452399	C	1	YLD124.LOD1	0.312314
	6646	H	-12.941857	-2.000476	-13.755890	H	1	YLD124.LOD1	0.009572
	6647	C	-14.141303	-0.036669	-11.169719	C	1	YLD124.LOD1	0.132423
	6648	H	-15.210222	-0.016506	-11.433220	H	1	YLD124.LOD1	-0.011706
	6649	C	-13.942523	-1.086059	-10.096904	C	1	YLD124.LOD1	0.094029
	6650	C	-14.014047	-0.955608	-8.744332	C	1	YLD124.LOD1	-0.194272
	6651	H	-13.878707	-1.802121	-8.071310	H	1	YLD124.LOD1	0.118653
	6652	C	-14.263189	0.298570	-8.142766	C	1	YLD124.LOD1	0.029031
	6653	C	-14.309860	0.481144	-6.775672	C	1	YLD124.LOD1	-0.298661
	6654	H	-14.413759	1.155537	-8.788828	H	1	YLD124.LOD1	0.063317
	6655	C	-14.510841	1.699496	-6.091392	C	1	YLD124.LOD1	0.24754
	6656	C	-14.462929	1.871424	-4.712479	C	1	YLD124.LOD1	-0.281071
	6657	C	-14.799780	3.075707	-6.697556	C	1	YLD124.LOD1	-0.098074
	6658	C	-14.657154	3.261923	-4.400119	C	1	YLD124.LOD1	0.526995
	6659	C	-14.227477	0.812506	-3.799391	C	1	YLD124.LOD1	0.389724
	6660	O	-14.798501	3.966890	-5.548901	O	1	YLD124.LOD1	-0.351072
	6661	C	-16.304975	3.260838	-7.289482	C	1	YLD124.LOD1	0.617997
	6662	C	-13.792097	3.663336	-7.738954	C	1	YLD124.LOD1	0.253109
	6663	C	-14.693428	3.941817	-3.202835	C	1	YLD124.LOD1	-0.451385
	6664	N	-14.023350	-0.118174	-3.129536	N	1	YLD124.LOD1	-0.428829
	6665	F	-17.152783	2.813947	-6.350714	F	1	YLD124.LOD1	-0.200469
	6666	F	-16.658783	4.518669	-7.597576	F	1	YLD124.LOD1	-0.158364
	6667	F	-16.476716	2.502145	-8.394909	F	1	YLD124.LOD1	-0.193377
	6668	C	-12.573729	2.968270	-7.761866	C	1	YLD124.LOD1	-0.158716
	6669	C	-13.958977	4.765761	-8.586596	C	1	YLD124.LOD1	-0.162688
	6670	C	-14.538924	3.285901	-1.947576	C	1	YLD124.LOD1	0.447489
	6671	C	-14.891452	5.354692	-3.191181	C	1	YLD124.LOD1	0.491336
	6672	H	-12.426457	2.116380	-7.104745	H	1	YLD124.LOD1	0.085247
	6673	C	-11.547185	3.359148	-8.616665	C	1	YLD124.LOD1	-0.074329
	6674	C	-12.929994	5.149559	-9.450129	C	1	YLD124.LOD1	-0.055824
	6675	H	-14.877414	5.338189	-8.583860	H	1	YLD124.LOD1	0.099228
	6676	N	-14.416873	2.790366	-0.900631	N	1	YLD124.LOD1	-0.454587
	6677	N	-15.049926	6.508090	-3.166946	N	1	YLD124.LOD1	-0.481156
	6678	H	-10.610221	2.809728	-8.616631	H	1	YLD124.LOD1	0.111202
	6679	C	-11.724120	4.451185	-9.469079	C	1	YLD124.LOD1	-0.106678
	6680	H	-13.074885	6.007799	-10.100308	H	1	YLD124.LOD1	0.095951
	6681	H	-10.924839	4.757480	-10.138166	H	1	YLD124.LOD1	0.103827
	6682	H	-14.146967	-0.386233	-6.138269	H	1	YLD124.LOD1	0.159396
	6683	H	-13.898829	0.963022	-10.794779	H	1	YLD124.LOD1	-0.052081
	6684	H	-14.637438	-1.780582	-13.365651	H	1	YLD124.LOD1	-0.003289
	6685	C	-12.086969	-11.176087	-13.993800	C	1	YLD124.LOD1	0.198954
	6686	C	-12.135899	-10.568745	-16.292230	C	1	YLD124.LOD1	0.115128
	6687	C	-10.966605	-11.277168	-16.706122	C	1	YLD124.LOD1	0.306486
	6688	C	-10.787809	-11.285512	-13.422629	C	1	YLD124.LOD1	0.28632
	6689	O	-9.982510	-10.303400	-13.871800	O	1	YLD124.LOD1	-0.606883
	6690	O	-10.872400	-12.510300	-16.171900	O	1	YLD124.LOD1	-0.600198
	6691	C	-11.178997	-15.285657	-15.695818	C	1	YLD124.LOD1	0.267162
	6692	C	-8.588985	-8.425714	-12.030772	C	1	YLD124.LOD1	0.369124
	6693	C	-7.180663	-7.998904	-11.559885	C	1	YLD124.LOD1	-0.324271
	6694	H	-6.584717	-7.568266	-12.374256	H	1	YLD124.LOD1	0.053925
	6695	H	-7.258141	-7.232693	-10.775139	H	1	YLD124.LOD1	0.070181
	6696	H	-6.614203	-8.837685	-11.137520	H	1	YLD124.LOD1	0.052098
	6697	C	-11.050798	-16.695282	-16.314659	C	1	YLD124.LOD1	-0.316887
	6698	H	-11.342114	-17.459747	-15.580215	H	1	YLD124.LOD1	0.07213
	6699	H	-11.699685	-16.823820	-17.189976	H	1	YLD124.LOD1	0.059956
	6700	H	-10.022334	-16.919428	-16.623979	H	1	YLD124.LOD1	0.057948
	6701	C	-9.375427	-8.986612	-10.826207	C	1	YLD124.LOD1	-0.260833
	6702	H	-10.381635	-9.312978	-11.114476	H	1	YLD124.LOD1	0.041714
	6703	H	-8.866809	-9.843657	-10.369023	H	1	YLD124.LOD1	0.041636
	6704	H	-9.485082	-8.218289	-10.047150	H	1	YLD124.LOD1	0.048242
	6705	C	-9.328000	-7.183602	-12.574219	C	1	YLD124.LOD1	-0.256632
	6706	H	-9.389263	-6.405729	-11.799267	H	1	YLD124.LOD1	0.046696
	6707	H	-8.816615	-6.740269	-13.437512	H	1	YLD124.LOD1	0.030906
	6708	H	-10.355967	-7.417883	-12.876187	H	1	YLD124.LOD1	0.051975
	6709	C	-10.262252	-15.192081	-14.456642	C	1	YLD124.LOD1	-0.203727
	6710	H	-9.211724	-15.381702	-14.709381	H	1	YLD124.LOD1	0.027457
	6711	H	-10.321068	-14.205401	-13.983940	H	1	YLD124.LOD1	0.031775
	6712	H	-10.557050	-15.940543	-13.707094	H	1	YLD124.LOD1	0.046776
	6713	C	-12.641604	-15.057625	-15.255822	C	1	YLD124.LOD1	-0.249027
	6714	H	-13.340916	-15.149004	-16.096126	H	1	YLD124.LOD1	0.037596
	6715	H	-12.935175	-15.805861	-14.505506	H	1	YLD124.LOD1	0.055765
	6716	H	-12.779529	-14.066211	-14.810301	H	1	YLD124.LOD1	0.04836
	6717	C	-11.743530	-13.997391	-18.478160	C	1	YLD124.LOD1	-0.409962
	6718	H	-12.801488	-13.888209	-18.214406	H	1	YLD124.LOD1	0.090944
	6719	H	-11.488844	-13.188079	-19.173413	H	1	YLD124.LOD1	0.090896
	6720	H	-11.632871	-14.939889	-19.028156	H	1	YLD124.LOD1	0.069902
	6721	C	-8.921320	-14.145195	-17.518843	C	1	YLD124.LOD1	-0.458602
	6722	H	-8.630909	-13.351020	-18.217527	H	1	YLD124.LOD1	0.097974
	6723	H	-8.235977	-14.103664	-16.664875	H	1	YLD124.LOD1	0.103309
	6724	H	-8.757196	-15.100720	-18.031761	H	1	YLD124.LOD1	0.085827
	6725	C	-7.678875	-11.314693	-12.714472	C	1	YLD124.LOD1	-0.493974
	6726	H	-8.288562	-11.761782	-11.921631	H	1	YLD124.LOD1	0.11158
	6727	H	-7.571529	-12.062174	-13.508945	H	1	YLD124.LOD1	0.113577
	6728	H	-6.681683	-11.120820	-12.302624	H	1	YLD124.LOD1	0.09477
	6729	C	-7.504880	-9.188084	-14.822840	C	1	YLD124.LOD1	-0.483575
	6730	H	-7.442807	-9.962525	-15.597069	H	1	YLD124.LOD1	0.116965
	6731	H	-7.946179	-8.295259	-15.280127	H	1	YLD124.LOD1	0.100121
	6732	H	-6.477543	-8.933353	-14.536218	H	1	YLD124.LOD1	0.088084
	6733	Si	-8.451140	-9.799470	-13.375600	Si	1	YLD124.LOD1	0.763339
	6734	Si	-10.668600	-13.969700	-16.994100	Si	1	YLD124.LOD1	0.748472
	6735	H	-10.856130	-11.234981	-12.325998	H	1	YLD124.LOD1	-0.009815
	6736	H	-12.954902	-11.256672	-16.520639	H	1	YLD124.LOD1	0.057511
	6737	H	-10.899457	-11.342037	-17.801653	H	1	YLD124.LOD1	-0.045737
	6738	H	-10.122422	-10.662530	-16.359135	H	1	YLD124.LOD1	-0.011652
	6739	H	-12.286397	-9.689276	-16.927066	H	1	YLD124.LOD1	0.023801
	6740	H	-12.807632	-11.032303	-13.181813	H	1	YLD124.LOD1	-0.001966
	6741	H	-12.343305	-12.128386	-14.466095	H	1	YLD124.LOD1	0.031172
	6742	H	-10.356402	-12.262874	-13.679540	H	1	YLD124.LOD1	-0.066029
	6743	C	-11.826986	-0.217779	-12.168018	C	1	YLD124.LOD1	-0.185058
	6744	H	-11.242539	-0.382872	-13.081118	H	1	YLD124.LOD1	0.04722
	6745	H	-11.609947	0.796652	-11.812629	H	1	YLD124.LOD1	0.027573
	6746	H	-11.470463	-0.921533	-11.409468	H	1	YLD124.LOD1	0.00699
	6747	C	-13.751441	0.615675	-13.541435	C	1	YLD124.LOD1	-0.347891
	6748	H	-13.201448	0.433324	-14.472686	H	1	YLD124.LOD1	0.075067
	6749	H	-14.822951	0.542886	-13.764412	H	1	YLD124.LOD1	0.071859
	6750	H	-13.542609	1.645984	-13.229056	H	1	YLD124.LOD1	0.077505
	6751	C	16.699646	-28.193994	5.723806	C	1	YLD124_chi.LOD1	-0.150166
	6752	C	17.433053	-28.060657	6.865469	C	1	YLD124_chi.LOD1	-0.190723
	6753	H	17.002716	-27.519261	7.706551	H	1	YLD124_chi.LOD1	0.123134
	6754	H	17.148405	-28.720861	4.883342	H	1	YLD124_chi.LOD1	0.111619
	6755	N	11.495596	-26.187375	4.521392	N	1	YLD124_chi.LOD1	-0.506176
	6756	C	12.743258	-26.700238	4.834559	C	1	YLD124_chi.LOD1	0.404469
	6757	C	13.318215	-26.525713	6.122455	C	1	YLD124_chi.LOD1	-0.281203
	6758	C	14.582928	-26.999080	6.418777	C	1	YLD124_chi.LOD1	-0.112562
	6759	C	15.366358	-27.690498	5.469291	C	1	YLD124_chi.LOD1	0.131862
	6760	C	14.780585	-27.884444	4.201420	C	1	YLD124_chi.LOD1	-0.140167
	6761	C	13.516572	-27.415460	3.885526	C	1	YLD124_chi.LOD1	-0.26473
	6762	H	12.768550	-26.014432	6.902808	H	1	YLD124_chi.LOD1	0.177954
	6763	H	14.969752	-26.829977	7.419419	H	1	YLD124_chi.LOD1	0.098859
	6764	H	15.341258	-28.421639	3.439402	H	1	YLD124_chi.LOD1	0.103807
	6765	H	13.129937	-27.608381	2.892605	H	1	YLD124_chi.LOD1	0.161189
	6766	C	18.771417	-28.543352	7.071931	C	1	YLD124_chi.LOD1	0.100982
	6767	C	19.410744	-28.271447	8.260217	C	1	YLD124_chi.LOD1	-0.303623
	6768	C	19.500242	-29.312294	5.989966	C	1	YLD124_chi.LOD1	0.096207
	6769	H	18.865074	-27.727191	9.029573	H	1	YLD124_chi.LOD1	0.124941
	6770	C	20.667445	-30.181393	6.513632	C	1	YLD124_chi.LOD1	0.409462
	6771	H	18.796210	-29.952637	5.445134	H	1	YLD124_chi.LOD1	-0.020765
	6772	C	21.544776	-29.320330	7.452239	C	1	YLD124_chi.LOD1	-0.014279
	6773	H	22.038123	-28.538819	6.853743	H	1	YLD124_chi.LOD1	-0.02177
	6774	C	20.756881	-28.642621	8.553064	C	1	YLD124_chi.LOD1	0.179445
	6775	C	21.165828	-28.266813	9.794232	C	1	YLD124_chi.LOD1	-0.27725
	6776	H	20.503904	-27.759535	10.495929	H	1	YLD124_chi.LOD1	0.132087
	6777	C	22.483630	-28.520432	10.237352	C	1	YLD124_chi.LOD1	0.141075
	6778	C	22.938871	-28.152737	11.487193	C	1	YLD124_chi.LOD1	-0.327608
	6779	H	23.168537	-29.011674	9.556006	H	1	YLD124_chi.LOD1	-0.027316
	6780	C	24.235664	-28.349862	12.009278	C	1	YLD124_chi.LOD1	0.260653
	6781	C	24.685425	-27.903471	13.246813	C	1	YLD124_chi.LOD1	-0.287606
	6782	C	25.411316	-29.073216	11.346726	C	1	YLD124_chi.LOD1	-0.056548
	6783	C	26.070097	-28.258793	13.405914	C	1	YLD124_chi.LOD1	0.509074
	6784	C	23.871860	-27.192740	14.165279	C	1	YLD124_chi.LOD1	0.396907
	6785	O	26.503250	-28.896166	12.291849	O	1	YLD124_chi.LOD1	-0.366332
	6786	C	25.919863	-28.566481	9.955491	C	1	YLD124_chi.LOD1	0.253806
	6787	C	25.263922	-30.699330	11.272366	C	1	YLD124_chi.LOD1	0.598114
	6788	C	26.964378	-28.046227	14.431794	C	1	YLD124_chi.LOD1	-0.43234
	6789	N	23.129695	-26.612673	14.850293	N	1	YLD124_chi.LOD1	-0.430249
	6790	C	26.601600	-27.372690	15.633652	C	1	YLD124_chi.LOD1	0.437474
	6791	C	28.309288	-28.507002	14.311697	C	1	YLD124_chi.LOD1	0.49223
	6792	N	26.348276	-26.827282	16.631106	N	1	YLD124_chi.LOD1	-0.451871
	6793	N	29.410506	-28.875889	14.226398	N	1	YLD124_chi.LOD1	-0.482758
	6794	H	22.246831	-27.637628	12.151190	H	1	YLD124_chi.LOD1	0.157364
	6795	H	22.346109	-29.940776	7.866832	H	1	YLD124_chi.LOD1	0.040059
	6796	H	19.887198	-28.593534	5.250816	H	1	YLD124_chi.LOD1	-0.024244
	6797	C	10.684115	-25.529301	5.482478	C	1	YLD124_chi.LOD1	0.240322
	6798	C	10.848382	-26.385598	3.260723	C	1	YLD124_chi.LOD1	0.113854
	6799	C	9.755066	-27.293569	3.185317	C	1	YLD124_chi.LOD1	0.29958
	6800	C	9.890704	-26.263872	6.416825	C	1	YLD124_chi.LOD1	0.285774
	6801	O	8.602530	-26.445300	6.064620	O	1	YLD124_chi.LOD1	-0.61175
	6802	O	9.849750	-28.253900	4.125780	O	1	YLD124_chi.LOD1	-0.599726
	6803	C	8.694192	-30.805790	4.660077	C	1	YLD124_chi.LOD1	0.275329
	6804	C	5.731786	-26.013076	5.414627	C	1	YLD124_chi.LOD1	0.358728
	6805	C	4.472449	-25.323618	5.984834	C	1	YLD124_chi.LOD1	-0.337707
	6806	H	4.508275	-24.233655	5.864893	H	1	YLD124_chi.LOD1	0.059176
	6807	H	3.573246	-25.677987	5.460677	H	1	YLD124_chi.LOD1	0.075606
	6808	H	4.330320	-25.538933	7.051041	H	1	YLD124_chi.LOD1	0.056098
	6809	C	7.507626	-30.810406	3.671039	C	1	YLD124_chi.LOD1	-0.311529
	6810	H	6.644879	-31.327311	4.115147	H	1	YLD124_chi.LOD1	0.071087
	6811	H	7.178535	-29.795857	3.413678	H	1	YLD124_chi.LOD1	0.058721
	6812	H	7.749689	-31.331339	2.736312	H	1	YLD124_chi.LOD1	0.056179
	6813	C	5.586584	-27.542465	5.571296	C	1	YLD124_chi.LOD1	-0.279876
	6814	H	6.469112	-28.074419	5.196541	H	1	YLD124_chi.LOD1	0.048405
	6815	H	5.440691	-27.835877	6.617687	H	1	YLD124_chi.LOD1	0.047411
	6816	H	4.715643	-27.904770	5.006142	H	1	YLD124_chi.LOD1	0.054899
	6817	C	5.846561	-25.676492	3.911890	C	1	YLD124_chi.LOD1	-0.273001
	6818	H	4.943370	-26.004253	3.376933	H	1	YLD124_chi.LOD1	0.0526
	6819	H	5.954625	-24.599412	3.733397	H	1	YLD124_chi.LOD1	0.034813
	6820	H	6.699095	-26.182386	3.442847	H	1	YLD124_chi.LOD1	0.061699
	6821	C	9.082378	-32.262874	4.992837	C	1	YLD124_chi.LOD1	-0.202774
	6822	H	9.368154	-32.827474	4.096644	H	1	YLD124_chi.LOD1	0.027959
	6823	H	9.919550	-32.306038	5.698387	H	1	YLD124_chi.LOD1	0.030756
	6824	H	8.232092	-32.788350	5.451094	H	1	YLD124_chi.LOD1	0.045471
	6825	C	8.265745	-30.093047	5.961272	C	1	YLD124_chi.LOD1	-0.266625
	6826	H	7.943408	-29.060976	5.776238	H	1	YLD124_chi.LOD1	0.041283
	6827	H	7.418843	-30.620315	6.423609	H	1	YLD124_chi.LOD1	0.059445
	6828	H	9.080566	-30.065125	6.693187	H	1	YLD124_chi.LOD1	0.054675
	6829	C	10.331771	-30.212767	2.072660	C	1	YLD124_chi.LOD1	-0.410828
	6830	H	10.783161	-29.366146	1.543302	H	1	YLD124_chi.LOD1	0.093855
	6831	H	10.952685	-31.095635	1.876752	H	1	YLD124_chi.LOD1	0.090546
	6832	H	9.350863	-30.403533	1.620631	H	1	YLD124_chi.LOD1	0.070213
	6833	C	11.758997	-30.334438	4.689612	C	1	YLD124_chi.LOD1	-0.460074
	6834	H	12.577561	-30.423342	3.964854	H	1	YLD124_chi.LOD1	0.099819
	6835	H	12.054738	-29.586099	5.433281	H	1	YLD124_chi.LOD1	0.10243
	6836	H	11.679014	-31.300557	5.202372	H	1	YLD124_chi.LOD1	0.086844
	6837	C	7.053997	-25.543487	8.181961	C	1	YLD124_chi.LOD1	-0.477029
	6838	H	6.812157	-26.567064	8.488520	H	1	YLD124_chi.LOD1	0.107463
	6839	H	7.969153	-25.249271	8.708702	H	1	YLD124_chi.LOD1	0.106999
	6840	H	6.245302	-24.889638	8.529110	H	1	YLD124_chi.LOD1	0.090486
	6841	C	7.729342	-23.708282	5.908761	C	1	YLD124_chi.LOD1	-0.470103
	6842	H	8.555136	-23.334895	6.526687	H	1	YLD124_chi.LOD1	0.112461
	6843	H	8.026345	-23.606389	4.858613	H	1	YLD124_chi.LOD1	0.098066
	6844	H	6.875892	-23.039238	6.071416	H	1	YLD124_chi.LOD1	0.083138
	6845	Si	7.294730	-25.426500	6.375830	Si	1	YLD124_chi.LOD1	0.770043
	6846	Si	10.181400	-29.888100	3.870000	Si	1	YLD124_chi.LOD1	0.73989
	6847	H	10.396757	-27.237651	6.488027	H	1	YLD124_chi.LOD1	-0.017464
	6848	H	10.534178	-25.405875	2.889742	H	1	YLD124_chi.LOD1	0.058354
	6849	H	8.826961	-26.723814	3.335806	H	1	YLD124_chi.LOD1	-0.04034
	6850	H	9.699924	-27.758552	2.189543	H	1	YLD124_chi.LOD1	-0.007901
	6851	H	11.609710	-26.749049	2.562582	H	1	YLD124_chi.LOD1	0.028132
	6852	H	11.324143	-24.826579	6.025655	H	1	YLD124_chi.LOD1	-0.011538
	6853	H	9.944453	-24.922831	4.952054	H	1	YLD124_chi.LOD1	0.020652
	6854	H	9.933306	-25.799131	7.411679	H	1	YLD124_chi.LOD1	-0.064856
	6855	C	20.069660	-31.360384	7.263651	C	1	YLD124_chi.LOD1	-0.299384
	6856	H	19.469794	-31.989111	6.594777	H	1	YLD124_chi.LOD1	0.066854
	6857	H	20.893904	-31.974399	7.645839	H	1	YLD124_chi.LOD1	0.072315
	6858	H	19.440046	-31.078915	8.113465	H	1	YLD124_chi.LOD1	0.027971
	6859	C	21.462192	-30.607501	5.320294	C	1	YLD124_chi.LOD1	-0.427943
	6860	H	20.861902	-31.205942	4.624325	H	1	YLD124_chi.LOD1	0.089807
	6861	H	21.881573	-29.762120	4.761182	H	1	YLD124_chi.LOD1	0.091303
	6862	H	22.296836	-31.232390	5.660180	H	1	YLD124_chi.LOD1	0.089757
	6863	C	26.007773	-27.169345	9.861231	C	1	YLD124_chi.LOD1	-0.158763
	6864	C	26.271891	-29.342867	8.844005	C	1	YLD124_chi.LOD1	-0.147279
	6865	C	26.430724	-26.560377	8.683167	C	1	YLD124_chi.LOD1	-0.065518
	6866	H	25.746101	-26.553365	10.716288	H	1	YLD124_chi.LOD1	0.080042
	6867	C	26.687299	-28.728187	7.660728	C	1	YLD124_chi.LOD1	-0.090746
	6868	H	26.234570	-30.423641	8.883969	H	1	YLD124_chi.LOD1	0.09871
	6869	C	26.769190	-27.339686	7.575047	C	1	YLD124_chi.LOD1	-0.09866
	6870	H	26.495074	-25.477284	8.632236	H	1	YLD124_chi.LOD1	0.104949
	6871	H	27.098297	-26.866741	6.653998	H	1	YLD124_chi.LOD1	0.102095
	6872	H	26.956440	-29.345196	6.808042	H	1	YLD124_chi.LOD1	0.105434
	6873	F	24.028699	-30.979479	11.714883	F	1	YLD124_chi.LOD1	-0.19867
	6874	F	26.137829	-31.333365	12.070686	F	1	YLD124_chi.LOD1	-0.154403
	6875	F	25.386778	-31.222116	10.031667	F	1	YLD124_chi.LOD1	-0.186491
	6876	C	-7.307609	1.194091	7.386968	C	2	YLD124_chi.LOD1	-0.150166
	6877	C	-8.549994	0.672567	7.595653	C	2	YLD124_chi.LOD1	-0.190723
	6878	H	-9.395032	1.094302	7.053648	H	2	YLD124_chi.LOD1	0.123134
	6879	H	-6.473939	0.776509	7.949083	H	2	YLD124_chi.LOD1	0.111619
	6880	N	-5.729600	5.528846	4.029254	N	2	YLD124_chi.LOD1	-0.506176
	6881	C	-6.116475	4.455595	4.814252	C	2	YLD124_chi.LOD1	0.404469
	6882	C	-7.462010	3.998905	4.840336	C	2	YLD124_chi.LOD1	-0.281203
	6883	C	-7.855001	2.956549	5.659136	C	2	YLD124_chi.LOD1	-0.112562
	6884	C	-6.945622	2.280917	6.501690	C	2	YLD124_chi.LOD1	0.131862
	6885	C	-5.606682	2.720266	6.452133	C	2	YLD124_chi.LOD1	-0.140167
	6886	C	-5.194994	3.763931	5.640507	C	2	YLD124_chi.LOD1	-0.26473
	6887	H	-8.210439	4.464022	4.211043	H	2	YLD124_chi.LOD1	0.177954
	6888	H	-8.898640	2.656719	5.638392	H	2	YLD124_chi.LOD1	0.098859
	6889	H	-4.866391	2.223120	7.075366	H	2	YLD124_chi.LOD1	0.103807
	6890	H	-4.148277	4.041193	5.650853	H	2	YLD124_chi.LOD1	0.161189
	6891	C	-8.880016	-0.385531	8.511270	C	2	YLD124_chi.LOD1	0.100982
	6892	C	-10.195825	-0.759950	8.663434	C	2	YLD124_chi.LOD1	-0.303623
	6893	C	-7.808757	-1.067127	9.336459	C	2	YLD124_chi.LOD1	0.096207
	6894	H	-10.949359	-0.265375	8.052318	H	2	YLD124_chi.LOD1	0.124941
	6895	C	-8.210700	-2.467345	9.855838	C	2	YLD124_chi.LOD1	0.409462
	6896	H	-6.884614	-1.155723	8.752805	H	2	YLD124_chi.LOD1	-0.020765
	6897	C	-9.614864	-2.374159	10.497524	C	2	YLD124_chi.LOD1	-0.014279
	6898	H	-9.545412	-1.758751	11.407907	H	2	YLD124_chi.LOD1	-0.02177
	6899	C	-10.649367	-1.749773	9.585477	C	2	YLD124_chi.LOD1	0.179445
	6900	C	-11.994063	-1.948601	9.550698	C	2	YLD124_chi.LOD1	-0.27725
	6901	H	-12.642909	-1.415968	8.855606	H	2	YLD124_chi.LOD1	0.132087
	6902	C	-12.619896	-2.866618	10.424116	C	2	YLD124_chi.LOD1	0.141075
	6903	C	-13.980918	-3.095014	10.423028	C	2	YLD124_chi.LOD1	-0.327608
	6904	H	-12.001440	-3.401226	11.135703	H	2	YLD124_chi.LOD1	-0.027316
	6905	C	-14.693500	-3.977122	11.263990	C	2	YLD124_chi.LOD1	0.260653
	6906	C	-16.074933	-4.132432	11.287731	C	2	YLD124_chi.LOD1	-0.287606
	6907	C	-14.123616	-4.931245	12.317201	C	2	YLD124_chi.LOD1	-0.056548
	6908	C	-16.428485	-5.088984	12.302074	C	2	YLD124_chi.LOD1	0.509074
	6909	C	-16.957380	-3.418524	10.437890	C	2	YLD124_chi.LOD1	0.396907
	6910	O	-15.306419	-5.519208	12.927280	O	2	YLD124_chi.LOD1	-0.366332
	6911	C	-13.253154	-4.340137	13.476319	C	2	YLD124_chi.LOD1	0.253806
	6912	C	-13.349209	-6.237734	11.713298	C	2	YLD124_chi.LOD1	0.598114
	6913	C	-17.644750	-5.581772	12.720655	C	2	YLD124_chi.LOD1	-0.43234
	6914	N	-17.600836	-2.783773	9.703324	N	2	YLD124_chi.LOD1	-0.430249
	6915	C	-18.876732	-5.175640	12.131587	C	2	YLD124_chi.LOD1	0.437474
	6916	C	-17.700804	-6.534484	13.781183	C	2	YLD124_chi.LOD1	0.49223
	6917	N	-19.906047	-4.871199	11.679500	N	2	YLD124_chi.LOD1	-0.451871
	6918	N	-17.761544	-7.310961	14.646878	N	2	YLD124_chi.LOD1	-0.482758
	6919	H	-14.592260	-2.532102	9.719793	H	2	YLD124_chi.LOD1	0.157364
	6920	H	-9.928998	-3.370895	10.824347	H	2	YLD124_chi.LOD1	0.040059
	6921	H	-7.562877	-0.420031	10.192906	H	2	YLD124_chi.LOD1	-0.024244
	6922	C	-6.612065	6.196951	3.139264	C	2	YLD124_chi.LOD1	0.240322
	6923	C	-4.368993	5.959994	3.943738	C	2	YLD124_chi.LOD1	0.113854
	6924	C	-3.518709	5.289641	3.021300	C	2	YLD124_chi.LOD1	0.29958
	6925	C	-6.804765	5.712788	1.810983	C	2	YLD124_chi.LOD1	0.285774
	6926	O	-7.561700	4.600230	1.736550	O	2	YLD124_chi.LOD1	-0.61175
	6927	O	-4.207640	4.373580	2.312950	O	2	YLD124_chi.LOD1	-0.599726
	6928	C	-4.015902	1.721941	1.262531	C	2	YLD124_chi.LOD1	0.275329
	6929	C	-8.984618	4.900683	-0.845138	C	2	YLD124_chi.LOD1	0.358728
	6930	C	-10.038331	5.993940	-1.129553	C	2	YLD124_chi.LOD1	-0.337707
	6931	H	-9.853589	6.906523	-0.549249	H	2	YLD124_chi.LOD1	0.059176
	6932	H	-10.018193	6.275866	-2.192095	H	2	YLD124_chi.LOD1	0.075606
	6933	H	-11.057032	5.654524	-0.905044	H	2	YLD124_chi.LOD1	0.056098
	6934	C	-4.701018	1.560212	2.637528	C	2	YLD124_chi.LOD1	-0.311529
	6935	H	-4.841837	0.494648	2.868832	H	2	YLD124_chi.LOD1	0.071087
	6936	H	-4.104231	1.990950	3.451257	H	2	YLD124_chi.LOD1	0.058721
	6937	H	-5.692194	2.029832	2.664104	H	2	YLD124_chi.LOD1	0.056179
	6938	C	-9.278104	3.671426	-1.732523	C	2	YLD124_chi.LOD1	-0.279876
	6939	H	-8.564353	2.859345	-1.549883	H	2	YLD124_chi.LOD1	0.048405
	6940	H	-10.285563	3.273461	-1.562343	H	2	YLD124_chi.LOD1	0.047411
	6941	H	-9.209031	3.941251	-2.796301	H	2	YLD124_chi.LOD1	0.054899
	6942	C	-7.587058	5.450426	-1.204706	C	2	YLD124_chi.LOD1	-0.273001
	6943	H	-7.557750	5.758848	-2.259873	H	2	YLD124_chi.LOD1	0.0526
	6944	H	-7.317570	6.328093	-0.604108	H	2	YLD124_chi.LOD1	0.034813
	6945	H	-6.802777	4.696018	-1.068633	H	2	YLD124_chi.LOD1	0.061699
	6946	C	-4.899902	1.071719	0.176130	C	2	YLD124_chi.LOD1	-0.202774
	6947	H	-5.897970	1.525066	0.132066	H	2	YLD124_chi.LOD1	0.027959
	6948	H	-4.446992	1.158951	-0.817743	H	2	YLD124_chi.LOD1	0.030756
	6949	H	-5.037686	0.001460	0.387492	H	2	YLD124_chi.LOD1	0.045471
	6950	C	-2.649031	1.003919	1.290530	C	2	YLD124_chi.LOD1	-0.266625
	6951	H	-1.992003	1.403673	2.072720	H	2	YLD124_chi.LOD1	0.041283
	6952	H	-2.785428	-0.067502	1.496596	H	2	YLD124_chi.LOD1	0.059445
	6953	H	-2.125669	1.094974	0.332295	H	2	YLD124_chi.LOD1	0.054675
	6954	C	-4.842346	4.154404	-0.485291	C	2	YLD124_chi.LOD1	-0.410828
	6955	H	-4.258679	4.588159	-1.305004	H	2	YLD124_chi.LOD1	0.093855
	6956	H	-5.432312	3.327519	-0.899502	H	2	YLD124_chi.LOD1	0.090546
	6957	H	-5.553403	4.916173	-0.143227	H	2	YLD124_chi.LOD1	0.070213
	6958	C	-2.023225	3.971802	0.480821	C	2	YLD124_chi.LOD1	-0.460074
	6959	H	-1.848810	3.953415	-0.601984	H	2	YLD124_chi.LOD1	0.099819
	6960	H	-1.731814	4.962672	0.846570	H	2	YLD124_chi.LOD1	0.10243
	6961	H	-1.341655	3.237826	0.927418	H	2	YLD124_chi.LOD1	0.086844
	6962	C	-9.394903	2.589004	1.191792	C	2	YLD124_chi.LOD1	-0.477029
	6963	H	-10.288858	2.286544	0.635432	H	2	YLD124_chi.LOD1	0.107463
	6964	H	-8.552562	2.003577	0.805443	H	2	YLD124_chi.LOD1	0.106999
	6965	H	-9.542082	2.307884	2.241234	H	2	YLD124_chi.LOD1	0.090486
	6966	C	-10.339199	5.340396	1.903982	C	2	YLD124_chi.LOD1	-0.470103
	6967	H	-10.153417	6.416756	1.803385	H	2	YLD124_chi.LOD1	0.112461
	6968	H	-11.358954	5.143973	1.553382	H	2	YLD124_chi.LOD1	0.098066
	6969	H	-10.313204	5.106704	2.975040	H	2	YLD124_chi.LOD1	0.083138
	6970	Si	-9.065500	4.375300	1.006400	Si	2	YLD124_chi.LOD1	0.770043
	6971	Si	-3.768580	3.586350	0.886866	Si	2	YLD124_chi.LOD1	0.73989
	6972	H	-7.228390	6.493983	1.163155	H	2	YLD124_chi.LOD1	-0.017464
	6973	H	-4.365076	7.024758	3.693797	H	2	YLD124_chi.LOD1	0.058354
	6974	H	-3.058682	6.013878	2.333913	H	2	YLD124_chi.LOD1	-0.04034
	6975	H	-2.705324	4.793105	3.571457	H	2	YLD124_chi.LOD1	-0.007901
	6976	H	-3.935149	5.877781	4.945805	H	2	YLD124_chi.LOD1	0.028132
	6977	H	-7.611152	6.154580	3.584824	H	2	YLD124_chi.LOD1	-0.011538
	6978	H	-6.333688	7.254298	3.111399	H	2	YLD124_chi.LOD1	0.020652
	6979	H	-5.794955	5.490721	1.438820	H	2	YLD124_chi.LOD1	-0.064856
	6980	C	-8.220459	-3.418323	8.670332	C	2	YLD124_chi.LOD1	-0.299384
	6981	H	-7.220184	-3.508803	8.230111	H	2	YLD124_chi.LOD1	0.066854
	6982	H	-8.514989	-4.410754	9.031984	H	2	YLD124_chi.LOD1	0.072315
	6983	H	-8.913435	-3.133614	7.872493	H	2	YLD124_chi.LOD1	0.027971
	6984	C	-7.201469	-2.854270	10.889817	C	2	YLD124_chi.LOD1	-0.427943
	6985	H	-6.189993	-2.911236	10.469668	H	2	YLD124_chi.LOD1	0.089807
	6986	H	-7.173464	-2.162504	11.740599	H	2	YLD124_chi.LOD1	0.091303
	6987	H	-7.457330	-3.848979	11.274171	H	2	YLD124_chi.LOD1	0.089757
	6988	C	-13.772245	-3.158128	14.025866	C	2	YLD124_chi.LOD1	-0.158763
	6989	C	-12.054597	-4.854274	13.987419	C	2	YLD124_chi.LOD1	-0.147279
	6990	C	-13.107599	-2.500448	15.057016	C	2	YLD124_chi.LOD1	-0.065518
	6991	H	-14.704419	-2.750623	13.646372	H	2	YLD124_chi.LOD1	0.080042
	6992	C	-11.385799	-4.186964	15.015984	C	2	YLD124_chi.LOD1	-0.090746
	6993	H	-11.632332	-5.773097	13.602037	H	2	YLD124_chi.LOD1	0.09871
	6994	C	-11.907223	-3.012043	15.554187	C	2	YLD124_chi.LOD1	-0.09866
	6995	H	-13.528325	-1.588525	15.470792	H	2	YLD124_chi.LOD1	0.104949
	6996	H	-11.385861	-2.499865	16.358036	H	2	YLD124_chi.LOD1	0.102095
	6997	H	-10.457217	-4.599283	15.400614	H	2	YLD124_chi.LOD1	0.105434
	6998	F	-14.262086	-7.086346	11.216713	F	2	YLD124_chi.LOD1	-0.19867
	6999	F	-12.584817	-6.920990	12.580418	F	2	YLD124_chi.LOD1	-0.154403
	7000	F	-12.557088	-5.839402	10.692707	F	2	YLD124_chi.LOD1	-0.186491
	7001	C	-5.399254	-16.464883	-1.246866	C	3	YLD124_chi.LOD1	-0.150166
	7002	C	-5.305678	-15.115582	-1.074567	C	3	YLD124_chi.LOD1	-0.190723
	7003	H	-4.957185	-14.502552	-1.904306	H	3	YLD124_chi.LOD1	0.123134
	7004	H	-5.730696	-17.068824	-0.403804	H	3	YLD124_chi.LOD1	0.111619
	7005	N	-4.100439	-19.618603	-5.820879	N	3	YLD124_chi.LOD1	-0.506176
	7006	C	-4.446253	-18.841736	-4.727877	C	3	YLD124_chi.LOD1	0.404469
	7007	C	-4.357137	-17.423829	-4.764049	C	3	YLD124_chi.LOD1	-0.281203
	7008	C	-4.659353	-16.652867	-3.656951	C	3	YLD124_chi.LOD1	-0.112562
	7009	C	-5.084051	-17.224930	-2.438050	C	3	YLD124_chi.LOD1	0.131862
	7010	C	-5.196568	-18.630307	-2.415684	C	3	YLD124_chi.LOD1	-0.140167
	7011	C	-4.895901	-19.418965	-3.513446	C	3	YLD124_chi.LOD1	-0.26473
	7012	H	-4.048878	-16.917475	-5.670180	H	3	YLD124_chi.LOD1	0.177954
	7013	H	-4.566838	-15.574376	-3.745318	H	3	YLD124_chi.LOD1	0.098859
	7014	H	-5.530888	-19.116899	-1.501867	H	3	YLD124_chi.LOD1	0.103807
	7015	H	-5.012720	-20.491725	-3.423239	H	3	YLD124_chi.LOD1	0.161189
	7016	C	-5.593282	-14.395797	0.136232	C	3	YLD124_chi.LOD1	0.100982
	7017	C	-5.385337	-13.035757	0.178031	C	3	YLD124_chi.LOD1	-0.303623
	7018	C	-6.084700	-15.115181	1.374819	C	3	YLD124_chi.LOD1	0.096207
	7019	H	-5.042714	-12.535838	-0.726717	H	3	YLD124_chi.LOD1	0.124941
	7020	C	-6.819981	-14.201279	2.382822	C	3	YLD124_chi.LOD1	0.409462
	7021	H	-6.749636	-15.939798	1.091256	H	3	YLD124_chi.LOD1	-0.020765
	7022	C	-5.964486	-12.934722	2.619640	C	3	YLD124_chi.LOD1	-0.014279
	7023	H	-5.041483	-13.226727	3.144186	H	3	YLD124_chi.LOD1	-0.02177
	7024	C	-5.574209	-12.228108	1.338912	C	3	YLD124_chi.LOD1	0.179445
	7025	C	-5.308362	-10.910576	1.132803	C	3	YLD124_chi.LOD1	-0.27725
	7026	H	-5.011272	-10.522713	0.158559	H	3	YLD124_chi.LOD1	0.132087
	7027	C	-5.406894	-9.971913	2.184699	C	3	YLD124_chi.LOD1	0.141075
	7028	C	-5.142699	-8.627671	2.018080	C	3	YLD124_chi.LOD1	-0.327608
	7029	H	-5.687383	-10.330806	3.168147	H	3	YLD124_chi.LOD1	-0.027316
	7030	C	-5.199896	-7.623021	3.008288	C	3	YLD124_chi.LOD1	0.260653
	7031	C	-4.857940	-6.287781	2.825962	C	3	YLD124_chi.LOD1	-0.287606
	7032	C	-5.632123	-7.772694	4.469503	C	3	YLD124_chi.LOD1	-0.056548
	7033	C	-5.007246	-5.584362	4.071672	C	3	YLD124_chi.LOD1	0.509074
	7034	C	-4.414968	-5.755352	1.588666	C	3	YLD124_chi.LOD1	0.396907
	7035	O	-5.412552	-6.449106	5.032377	O	3	YLD124_chi.LOD1	-0.366332
	7036	C	-4.869137	-8.792573	5.379797	C	3	YLD124_chi.LOD1	0.253806
	7037	C	-7.236420	-7.991490	4.692373	C	3	YLD124_chi.LOD1	0.598114
	7038	C	-4.795118	-4.268245	4.418355	C	3	YLD124_chi.LOD1	-0.43234
	7039	N	-4.057166	-5.412068	0.534786	N	3	YLD124_chi.LOD1	-0.430249
	7040	C	-4.355054	-3.292432	3.478220	C	3	YLD124_chi.LOD1	0.437474
	7041	C	-5.016425	-3.840521	5.761335	C	3	YLD124_chi.LOD1	0.49223
	7042	N	-3.995541	-2.463367	2.743401	N	3	YLD124_chi.LOD1	-0.451871
	7043	N	-5.191168	-3.478006	6.854076	N	3	YLD124_chi.LOD1	-0.482758
	7044	H	-4.837669	-8.286141	1.030426	H	3	YLD124_chi.LOD1	0.157364
	7045	H	-6.499930	-12.258708	3.294384	H	3	YLD124_chi.LOD1	0.040059
	7046	H	-5.221082	-15.582745	1.873058	H	3	YLD124_chi.LOD1	-0.024244
	7047	C	-3.710326	-19.084978	-7.078645	C	3	YLD124_chi.LOD1	0.240322
	7048	C	-4.239882	-21.041922	-5.835374	C	3	YLD124_chi.LOD1	0.113854
	7049	C	-5.462776	-21.634965	-6.266928	C	3	YLD124_chi.LOD1	0.29958
	7050	C	-4.676542	-19.040812	-8.121629	C	3	YLD124_chi.LOD1	0.285774
	7051	O	-5.929520	-19.120600	-7.631760	O	3	YLD124_chi.LOD1	-0.61175
	7052	O	-6.514600	-21.296900	-5.495610	O	3	YLD124_chi.LOD1	-0.599726
	7053	C	-8.746574	-21.181978	-3.718351	C	3	YLD124_chi.LOD1	0.275329
	7054	C	-8.689863	-18.724352	-8.640145	C	3	YLD124_chi.LOD1	0.358728
	7055	C	-9.267149	-17.669310	-9.609703	C	3	YLD124_chi.LOD1	-0.337707
	7056	H	-8.542552	-17.375360	-10.379275	H	3	YLD124_chi.LOD1	0.059176
	7057	H	-10.147961	-18.071478	-10.130582	H	3	YLD124_chi.LOD1	0.075606
	7058	H	-9.588591	-16.759878	-9.087241	H	3	YLD124_chi.LOD1	0.056098
	7059	C	-7.823350	-20.121769	-3.078220	C	3	YLD124_chi.LOD1	-0.311529
	7060	H	-8.400100	-19.473906	-2.402653	H	3	YLD124_chi.LOD1	0.071087
	7061	H	-7.021061	-20.575710	-2.483146	H	3	YLD124_chi.LOD1	0.058721
	7062	H	-7.356946	-19.471449	-3.828708	H	3	YLD124_chi.LOD1	0.056179
	7063	C	-9.779051	-19.125911	-7.621773	C	3	YLD124_chi.LOD1	-0.279876
	7064	H	-9.407075	-19.861289	-6.898498	H	3	YLD124_chi.LOD1	0.048405
	7065	H	-10.151317	-18.262809	-7.057165	H	3	YLD124_chi.LOD1	0.047411
	7066	H	-10.640144	-19.574273	-8.138197	H	3	YLD124_chi.LOD1	0.054899
	7067	C	-8.281946	-19.974437	-9.449819	C	3	YLD124_chi.LOD1	-0.273001
	7068	H	-9.148263	-20.375413	-9.995779	H	3	YLD124_chi.LOD1	0.0526
	7069	H	-7.505557	-19.754211	-10.193029	H	3	YLD124_chi.LOD1	0.034813
	7070	H	-7.909971	-20.778026	-8.802808	H	3	YLD124_chi.LOD1	0.061699
	7071	C	-9.860737	-20.469156	-4.515244	C	3	YLD124_chi.LOD1	-0.202774
	7072	H	-9.454262	-19.826826	-5.306315	H	3	YLD124_chi.LOD1	0.027959
	7073	H	-10.544135	-21.186640	-4.982903	H	3	YLD124_chi.LOD1	0.030756
	7074	H	-10.455057	-19.827752	-3.848538	H	3	YLD124_chi.LOD1	0.045471
	7075	C	-9.394561	-22.029332	-2.601756	C	3	YLD124_chi.LOD1	-0.266625
	7076	H	-8.643193	-22.530591	-1.979264	H	3	YLD124_chi.LOD1	0.041283
	7077	H	-9.993553	-21.390174	-1.937155	H	3	YLD124_chi.LOD1	0.059445
	7078	H	-10.058630	-22.797988	-3.012355	H	3	YLD124_chi.LOD1	0.054675
	7079	C	-8.731666	-22.966470	-6.257730	C	3	YLD124_chi.LOD1	-0.410828
	7080	H	-9.527762	-22.270426	-6.544949	H	3	YLD124_chi.LOD1	0.093855
	7081	H	-8.120500	-23.157222	-7.148494	H	3	YLD124_chi.LOD1	0.090546
	7082	H	-9.203840	-23.917448	-5.982790	H	3	YLD124_chi.LOD1	0.070213
	7083	C	-6.945002	-23.710705	-3.989309	C	3	YLD124_chi.LOD1	-0.460074
	7084	H	-6.018102	-24.035993	-4.477437	H	3	YLD124_chi.LOD1	0.099819
	7085	H	-6.699591	-23.446913	-2.954561	H	3	YLD124_chi.LOD1	0.10243
	7086	H	-7.614372	-24.578990	-3.962248	H	3	YLD124_chi.LOD1	0.086844
	7087	C	-7.572392	-17.659029	-5.941002	C	3	YLD124_chi.LOD1	-0.477029
	7088	H	-7.178082	-18.444106	-5.286519	H	3	YLD124_chi.LOD1	0.107463
	7089	H	-7.125247	-16.709934	-5.623495	H	3	YLD124_chi.LOD1	0.106999
	7090	H	-8.653221	-17.591466	-5.769943	H	3	YLD124_chi.LOD1	0.090486
	7091	C	-6.588524	-16.459127	-8.506056	C	3	YLD124_chi.LOD1	-0.470103
	7092	H	-5.575373	-16.207603	-8.169239	H	3	YLD124_chi.LOD1	0.112461
	7093	H	-6.568578	-16.528439	-9.599766	H	3	YLD124_chi.LOD1	0.098066
	7094	H	-7.235048	-15.612501	-8.245894	H	3	YLD124_chi.LOD1	0.083138
	7095	Si	-7.180990	-17.991300	-7.693190	Si	3	YLD124_chi.LOD1	0.770043
	7096	Si	-7.717310	-22.307800	-4.880930	Si	3	YLD124_chi.LOD1	0.73989
	7097	H	-4.566694	-18.119443	-8.711898	H	3	YLD124_chi.LOD1	-0.017464
	7098	H	-3.404451	-21.457405	-6.406020	H	3	YLD124_chi.LOD1	0.058354
	7099	H	-5.627370	-21.270363	-7.290950	H	3	YLD124_chi.LOD1	-0.04034
	7100	H	-5.379905	-22.731136	-6.315466	H	3	YLD124_chi.LOD1	-0.007901
	7101	H	-4.112693	-21.391375	-4.805410	H	3	YLD124_chi.LOD1	0.028132
	7102	H	-3.377347	-18.057735	-6.898664	H	3	YLD124_chi.LOD1	-0.011538
	7103	H	-2.830345	-19.636578	-7.421608	H	3	YLD124_chi.LOD1	0.020652
	7104	H	-4.496803	-19.887146	-8.799085	H	3	YLD124_chi.LOD1	-0.064856
	7105	C	-8.168710	-13.838067	1.783753	C	3	YLD124_chi.LOD1	-0.299384
	7106	H	-8.789120	-14.730899	1.640673	H	3	YLD124_chi.LOD1	0.066854
	7107	H	-8.689887	-13.181480	2.490666	H	3	YLD124_chi.LOD1	0.072315
	7108	H	-8.107245	-13.315177	0.824258	H	3	YLD124_chi.LOD1	0.027971
	7109	C	-6.950682	-14.974672	3.656491	C	3	YLD124_chi.LOD1	-0.427943
	7110	H	-7.537899	-15.890532	3.517823	H	3	YLD124_chi.LOD1	0.089807
	7111	H	-5.982221	-15.258307	4.086361	H	3	YLD124_chi.LOD1	0.091303
	7112	H	-7.475172	-14.352697	4.391812	H	3	YLD124_chi.LOD1	0.089757
	7113	C	-3.475890	-8.762302	5.216862	C	3	YLD124_chi.LOD1	-0.158763
	7114	C	-5.423640	-9.696768	6.294705	C	3	YLD124_chi.LOD1	-0.147279
	7115	C	-2.655078	-9.618905	5.944919	C	3	YLD124_chi.LOD1	-0.065518
	7116	H	-3.029561	-8.061832	4.517464	H	3	YLD124_chi.LOD1	0.080042
	7117	C	-4.597739	-10.560928	7.016962	C	3	YLD124_chi.LOD1	-0.090746
	7118	H	-6.492119	-9.737220	6.461376	H	3	YLD124_chi.LOD1	0.09871
	7119	C	-3.215044	-10.525887	6.846936	C	3	YLD124_chi.LOD1	-0.09866
	7120	H	-1.578574	-9.576956	5.806347	H	3	YLD124_chi.LOD1	0.104949
	7121	H	-2.576653	-11.196441	7.415383	H	3	YLD124_chi.LOD1	0.102095
	7122	H	-5.044208	-11.256183	7.722296	H	3	YLD124_chi.LOD1	0.105434
	7123	F	-7.866085	-6.845692	4.391127	F	3	YLD124_chi.LOD1	-0.19867
	7124	F	-7.614949	-8.353188	5.928868	F	3	YLD124_chi.LOD1	-0.154403
	7125	F	-7.673356	-8.940873	3.834764	F	3	YLD124_chi.LOD1	-0.186491
	7126	C	28.198894	5.644314	-8.563746	C	4	YLD124_chi.LOD1	-0.150166
	7127	C	27.479173	6.082473	-9.635696	C	4	YLD124_chi.LOD1	-0.190723
	7128	H	26.399065	6.181044	-9.538903	H	4	YLD124_chi.LOD1	0.123134
	7129	H	29.275639	5.531743	-8.679074	H	4	YLD124_chi.LOD1	0.111619
	7130	N	26.374473	4.058728	-3.395393	N	4	YLD124_chi.LOD1	-0.506176
	7131	C	26.811527	4.478786	-4.640503	C	4	YLD124_chi.LOD1	0.404469
	7132	C	25.909595	4.988677	-5.613253	C	4	YLD124_chi.LOD1	-0.281203
	7133	C	26.341565	5.364754	-6.871565	C	4	YLD124_chi.LOD1	-0.112562
	7134	C	27.697155	5.277100	-7.256323	C	4	YLD124_chi.LOD1	0.131862
	7135	C	28.591977	4.795844	-6.278607	C	4	YLD124_chi.LOD1	-0.140167
	7136	C	28.177561	4.412107	-5.014301	C	4	YLD124_chi.LOD1	-0.26473
	7137	H	24.856963	5.093803	-5.382160	H	4	YLD124_chi.LOD1	0.177954
	7138	H	25.603292	5.742086	-7.573053	H	4	YLD124_chi.LOD1	0.098859
	7139	H	29.649123	4.720618	-6.524343	H	4	YLD124_chi.LOD1	0.103807
	7140	H	28.923896	4.058453	-4.313936	H	4	YLD124_chi.LOD1	0.161189
	7141	C	28.006681	6.404813	-10.933645	C	4	YLD124_chi.LOD1	0.100982
	7142	C	27.142849	6.770167	-11.941120	C	4	YLD124_chi.LOD1	-0.303623
	7143	C	29.491035	6.312397	-11.218705	C	4	YLD124_chi.LOD1	0.096207
	7144	H	26.080569	6.841743	-11.712387	H	4	YLD124_chi.LOD1	0.124941
	7145	C	29.951745	7.152188	-12.432962	C	4	YLD124_chi.LOD1	0.409462
	7146	H	30.063042	6.620410	-10.335258	H	4	YLD124_chi.LOD1	-0.020765
	7147	C	29.005960	6.864674	-13.622477	C	4	YLD124_chi.LOD1	-0.014279
	7148	H	29.152830	5.822069	-13.944583	H	4	YLD124_chi.LOD1	-0.02177
	7149	C	27.542578	7.050033	-13.281831	C	4	YLD124_chi.LOD1	0.179445
	7150	C	26.508959	7.393340	-14.096060	C	4	YLD124_chi.LOD1	-0.27725
	7151	H	25.484308	7.472677	-13.733227	H	4	YLD124_chi.LOD1	0.132087
	7152	C	26.718234	7.667157	-15.466647	C	4	YLD124_chi.LOD1	0.141075
	7153	C	25.696758	8.015423	-16.326790	C	4	YLD124_chi.LOD1	-0.327608
	7154	H	27.725102	7.583170	-15.858835	H	4	YLD124_chi.LOD1	-0.027316
	7155	C	25.807176	8.291197	-17.706957	C	4	YLD124_chi.LOD1	0.260653
	7156	C	24.747618	8.569404	-18.563100	C	4	YLD124_chi.LOD1	-0.287606
	7157	C	27.082527	8.337785	-18.552935	C	4	YLD124_chi.LOD1	-0.056548
	7158	C	25.250858	8.755068	-19.897702	C	4	YLD124_chi.LOD1	0.509074
	7159	C	23.395179	8.627973	-18.141100	C	4	YLD124_chi.LOD1	0.396907
	7160	O	26.593971	8.578892	-19.902047	O	4	YLD124_chi.LOD1	-0.366332
	7161	C	27.993024	7.065639	-18.613349	C	4	YLD124_chi.LOD1	0.253806
	7162	C	28.038184	9.636326	-18.284719	C	4	YLD124_chi.LOD1	0.598114
	7163	C	24.621081	9.040779	-21.088962	C	4	YLD124_chi.LOD1	-0.43234
	7164	N	22.316672	8.649972	-17.701931	N	4	YLD124_chi.LOD1	-0.430249
	7165	C	23.211775	9.227683	-21.181937	C	4	YLD124_chi.LOD1	0.437474
	7166	C	25.384708	9.158926	-22.288311	C	4	YLD124_chi.LOD1	0.49223
	7167	N	22.064427	9.387161	-21.303256	N	4	YLD124_chi.LOD1	-0.451871
	7168	N	25.995232	9.256261	-23.275134	N	4	YLD124_chi.LOD1	-0.482758
	7169	H	24.686988	8.071190	-15.923799	H	4	YLD124_chi.LOD1	0.157364
	7170	H	29.294436	7.491792	-14.472466	H	4	YLD124_chi.LOD1	0.040059
	7171	H	29.748667	5.255620	-11.390574	H	4	YLD124_chi.LOD1	-0.024244
	7172	C	25.023835	4.180963	-2.974388	C	4	YLD124_chi.LOD1	0.240322
	7173	C	27.277864	3.603013	-2.385209	C	4	YLD124_chi.LOD1	0.113854
	7174	C	27.927227	4.585008	-1.587011	C	4	YLD124_chi.LOD1	0.29958
	7175	C	24.529535	5.429854	-2.492771	C	4	YLD124_chi.LOD1	0.285774
	7176	O	24.314000	6.344700	-3.458610	O	4	YLD124_chi.LOD1	-0.61175
	7177	O	27.567500	5.826460	-1.967770	O	4	YLD124_chi.LOD1	-0.599726
	7178	C	27.446750	8.575364	-1.203717	C	4	YLD124_chi.LOD1	0.275329
	7179	C	23.162659	8.092038	-5.553477	C	4	YLD124_chi.LOD1	0.358728
	7180	C	24.444883	8.879131	-5.203048	C	4	YLD124_chi.LOD1	-0.337707
	7181	H	25.339901	8.245346	-5.233841	H	4	YLD124_chi.LOD1	0.059176
	7182	H	24.600501	9.694964	-5.923523	H	4	YLD124_chi.LOD1	0.075606
	7183	H	24.390913	9.334603	-4.206559	H	4	YLD124_chi.LOD1	0.056098
	7184	C	27.066256	8.127368	0.224806	C	4	YLD124_chi.LOD1	-0.311529
	7185	H	26.444996	8.893515	0.710411	H	4	YLD124_chi.LOD1	0.071087
	7186	H	26.488502	7.194607	0.226654	H	4	YLD124_chi.LOD1	0.058721
	7187	H	27.947905	7.976643	0.860147	H	4	YLD124_chi.LOD1	0.056179
	7188	C	21.956941	9.056790	-5.540943	C	4	YLD124_chi.LOD1	-0.279876
	7189	H	21.018400	8.536357	-5.765804	H	4	YLD124_chi.LOD1	0.048405
	7190	H	21.838100	9.552676	-4.570230	H	4	YLD124_chi.LOD1	0.047411
	7191	H	22.088773	9.845018	-6.296271	H	4	YLD124_chi.LOD1	0.054899
	7192	C	23.312360	7.502688	-6.972961	C	4	YLD124_chi.LOD1	-0.273001
	7193	H	23.492041	8.305381	-7.702864	H	4	YLD124_chi.LOD1	0.0526
	7194	H	24.155078	6.804145	-7.047156	H	4	YLD124_chi.LOD1	0.034813
	7195	H	22.407247	6.973173	-7.294098	H	4	YLD124_chi.LOD1	0.061699
	7196	C	28.232589	9.902384	-1.126357	C	4	YLD124_chi.LOD1	-0.202774
	7197	H	29.147225	9.804703	-0.528441	H	4	YLD124_chi.LOD1	0.027959
	7198	H	28.518384	10.260376	-2.121688	H	4	YLD124_chi.LOD1	0.030756
	7199	H	27.617387	10.682374	-0.654916	H	4	YLD124_chi.LOD1	0.045471
	7200	C	26.157660	8.804821	-2.022420	C	4	YLD124_chi.LOD1	-0.266625
	7201	H	25.540882	7.899398	-2.078135	H	4	YLD124_chi.LOD1	0.041283
	7202	H	25.543741	9.588277	-1.555181	H	4	YLD124_chi.LOD1	0.059445
	7203	H	26.381392	9.123266	-3.046602	H	4	YLD124_chi.LOD1	0.054675
	7204	C	30.093819	6.933772	-1.144669	C	4	YLD124_chi.LOD1	-0.410828
	7205	H	30.151395	5.918873	-0.735518	H	4	YLD124_chi.LOD1	0.093855
	7206	H	30.957505	7.074194	-1.806255	H	4	YLD124_chi.LOD1	0.090546
	7207	H	30.210846	7.636296	-0.310602	H	4	YLD124_chi.LOD1	0.070213
	7208	C	28.880882	7.625820	-3.785058	C	4	YLD124_chi.LOD1	-0.460074
	7209	H	28.134477	8.313497	-4.201234	H	4	YLD124_chi.LOD1	0.099819
	7210	H	29.863742	8.097326	-3.895444	H	4	YLD124_chi.LOD1	0.10243
	7211	H	28.870854	6.725392	-4.411027	H	4	YLD124_chi.LOD1	0.086844
	7212	C	22.402036	5.131720	-5.063620	C	4	YLD124_chi.LOD1	-0.477029
	7213	H	21.366935	4.855694	-4.834383	H	4	YLD124_chi.LOD1	0.107463
	7214	H	22.484789	5.224789	-6.152666	H	4	YLD124_chi.LOD1	0.106999
	7215	H	23.047324	4.302544	-4.750428	H	4	YLD124_chi.LOD1	0.090486
	7216	C	21.594104	7.177884	-3.028074	C	4	YLD124_chi.LOD1	-0.470103
	7217	H	21.299879	6.315333	-2.417645	H	4	YLD124_chi.LOD1	0.112461
	7218	H	21.922837	7.971462	-2.347212	H	4	YLD124_chi.LOD1	0.098066
	7219	H	20.690941	7.538164	-3.534974	H	4	YLD124_chi.LOD1	0.083138
	7220	Si	22.869800	6.700170	-4.254350	Si	4	YLD124_chi.LOD1	0.770043
	7221	Si	28.517700	7.218880	-2.035150	Si	4	YLD124_chi.LOD1	0.73989
	7222	H	23.612408	5.290517	-1.902122	H	4	YLD124_chi.LOD1	-0.017464
	7223	H	26.731699	2.927985	-1.720191	H	4	YLD124_chi.LOD1	0.058354
	7224	H	27.669453	4.437483	-0.528505	H	4	YLD124_chi.LOD1	-0.04034
	7225	H	29.017937	4.473490	-1.680442	H	4	YLD124_chi.LOD1	-0.007901
	7226	H	28.043399	2.995352	-2.878993	H	4	YLD124_chi.LOD1	0.028132
	7227	H	24.392892	3.962793	-3.842034	H	4	YLD124_chi.LOD1	-0.011538
	7228	H	24.819950	3.394713	-2.241930	H	4	YLD124_chi.LOD1	0.020652
	7229	H	25.306379	5.799502	-1.809099	H	4	YLD124_chi.LOD1	-0.064856
	7230	C	29.889892	8.617841	-12.035553	C	4	YLD124_chi.LOD1	-0.299384
	7231	H	30.580298	8.831454	-11.210787	H	4	YLD124_chi.LOD1	0.066854
	7232	H	30.206028	9.218148	-12.897033	H	4	YLD124_chi.LOD1	0.072315
	7233	H	28.894225	8.959970	-11.736524	H	4	YLD124_chi.LOD1	0.027971
	7234	C	31.340934	6.709265	-12.766597	C	4	YLD124_chi.LOD1	-0.427943
	7235	H	32.034095	6.882980	-11.934610	H	4	YLD124_chi.LOD1	0.089807
	7236	H	31.398633	5.647531	-13.035942	H	4	YLD124_chi.LOD1	0.091303
	7237	H	31.698503	7.292914	-13.623415	H	4	YLD124_chi.LOD1	0.089757
	7238	C	27.278808	5.866588	-18.757477	C	4	YLD124_chi.LOD1	-0.158763
	7239	C	29.390542	7.014993	-18.532868	C	4	YLD124_chi.LOD1	-0.147279
	7240	C	27.942915	4.644536	-18.813330	C	4	YLD124_chi.LOD1	-0.065518
	7241	H	26.195587	5.889097	-18.829242	H	4	YLD124_chi.LOD1	0.080042
	7242	C	30.052999	5.786400	-18.580286	C	4	YLD124_chi.LOD1	-0.090746
	7243	H	29.977187	7.919544	-18.439602	H	4	YLD124_chi.LOD1	0.09871
	7244	C	29.335503	4.600063	-18.720959	C	4	YLD124_chi.LOD1	-0.09866
	7245	H	27.371354	3.728110	-18.928679	H	4	YLD124_chi.LOD1	0.104949
	7246	H	29.856090	3.647411	-18.762937	H	4	YLD124_chi.LOD1	0.102095
	7247	H	31.137276	5.765030	-18.516270	H	4	YLD124_chi.LOD1	0.105434
	7248	F	27.636389	10.659863	-19.053495	F	4	YLD124_chi.LOD1	-0.19867
	7249	F	29.349557	9.449723	-18.504968	F	4	YLD124_chi.LOD1	-0.154403
	7250	F	27.887013	10.005603	-16.993009	F	4	YLD124_chi.LOD1	-0.186491
	7251	C	12.866650	-21.197211	11.963670	C	5	YLD124_chi.LOD1	-0.150166
	7252	C	13.932238	-21.901035	11.485954	C	5	YLD124_chi.LOD1	-0.190723
	7253	H	14.584992	-22.410968	12.192777	H	5	YLD124_chi.LOD1	0.123134
	7254	H	12.232641	-20.676041	11.248290	H	5	YLD124_chi.LOD1	0.111619
	7255	N	11.226100	-20.352506	17.362701	N	5	YLD124_chi.LOD1	-0.506176
	7256	C	11.611393	-20.592022	16.054288	C	5	YLD124_chi.LOD1	0.404469
	7257	C	12.715965	-21.431068	15.745041	C	5	YLD124_chi.LOD1	-0.281203
	7258	C	13.126864	-21.632315	14.440417	C	5	YLD124_chi.LOD1	-0.112562
	7259	C	12.469077	-21.030406	13.345717	C	5	YLD124_chi.LOD1	0.131862
	7260	C	11.357410	-20.220404	13.656100	C	5	YLD124_chi.LOD1	-0.140167
	7261	C	10.932798	-20.005151	14.956421	C	5	YLD124_chi.LOD1	-0.26473
	7262	H	13.259751	-21.933837	16.534984	H	5	YLD124_chi.LOD1	0.177954
	7263	H	13.981173	-22.280492	14.268561	H	5	YLD124_chi.LOD1	0.098859
	7264	H	10.810959	-19.743677	12.845097	H	5	YLD124_chi.LOD1	0.103807
	7265	H	10.066416	-19.375654	15.116778	H	5	YLD124_chi.LOD1	0.161189
	7266	C	14.319517	-22.016304	10.106255	C	5	YLD124_chi.LOD1	0.100982
	7267	C	15.464695	-22.708064	9.782635	C	5	YLD124_chi.LOD1	-0.303623
	7268	C	13.508905	-21.357975	9.009617	C	5	YLD124_chi.LOD1	0.096207
	7269	H	16.026948	-23.183747	10.584805	H	5	YLD124_chi.LOD1	0.124941
	7270	C	13.729338	-21.974161	7.608315	C	5	YLD124_chi.LOD1	0.409462
	7271	H	12.440780	-21.402245	9.253936	H	5	YLD124_chi.LOD1	-0.020765
	7272	C	15.249962	-22.100121	7.355420	C	5	YLD124_chi.LOD1	-0.014279
	7273	H	15.678196	-21.088891	7.275550	H	5	YLD124_chi.LOD1	-0.02177
	7274	C	15.981258	-22.834821	8.458735	C	5	YLD124_chi.LOD1	0.179445
	7275	C	17.123841	-23.568849	8.389754	C	5	YLD124_chi.LOD1	-0.27725
	7276	H	17.569868	-24.034524	9.268423	H	5	YLD124_chi.LOD1	0.132087
	7277	C	17.793423	-23.764824	7.160716	C	5	YLD124_chi.LOD1	0.141075
	7278	C	18.956228	-24.499562	7.048508	C	5	YLD124_chi.LOD1	-0.327608
	7279	H	17.380334	-23.302342	6.271831	H	5	YLD124_chi.LOD1	-0.027316
	7280	C	19.699792	-24.736046	5.871948	C	5	YLD124_chi.LOD1	0.260653
	7281	C	20.907705	-25.421047	5.802936	C	5	YLD124_chi.LOD1	-0.287606
	7282	C	19.358564	-24.297567	4.445179	C	5	YLD124_chi.LOD1	-0.056548
	7283	C	21.377547	-25.420616	4.443475	C	5	YLD124_chi.LOD1	0.509074
	7284	C	21.547802	-25.994259	6.930903	C	5	YLD124_chi.LOD1	0.396907
	7285	O	20.506236	-24.735006	3.665167	O	5	YLD124_chi.LOD1	-0.366332
	7286	C	19.158028	-22.772490	4.153716	C	5	YLD124_chi.LOD1	0.253806
	7287	C	18.124473	-25.113029	3.749307	C	5	YLD124_chi.LOD1	0.598114
	7288	C	22.505750	-25.951236	3.857856	C	5	YLD124_chi.LOD1	-0.43234
	7289	N	21.998560	-26.426716	7.913923	N	5	YLD124_chi.LOD1	-0.430249
	7290	C	23.483272	-26.674329	4.600358	C	5	YLD124_chi.LOD1	0.437474
	7291	C	22.727713	-25.784644	2.458391	C	5	YLD124_chi.LOD1	0.49223
	7292	N	24.306749	-27.270596	5.168610	N	5	YLD124_chi.LOD1	-0.451871
	7293	N	22.922597	-25.654619	1.317712	N	5	YLD124_chi.LOD1	-0.482758
	7294	H	19.372871	-24.936992	7.954163	H	5	YLD124_chi.LOD1	0.157364
	7295	H	15.415775	-22.580863	6.385694	H	5	YLD124_chi.LOD1	0.040059
	7296	H	13.766519	-20.287740	8.979222	H	5	YLD124_chi.LOD1	-0.024244
	7297	C	11.838704	-20.978487	18.480990	C	5	YLD124_chi.LOD1	0.240322
	7298	C	10.083312	-19.565349	17.709785	C	5	YLD124_chi.LOD1	0.113854
	7299	C	8.865753	-20.240153	18.002872	C	5	YLD124_chi.LOD1	0.29958
	7300	C	11.320799	-22.160638	19.099272	C	5	YLD124_chi.LOD1	0.285774
	7301	O	10.943300	-22.055000	20.388600	O	5	YLD124_chi.LOD1	-0.61175
	7302	O	8.939900	-21.539700	17.654700	O	5	YLD124_chi.LOD1	-0.599726
	7303	C	8.678001	-23.988568	16.203581	C	5	YLD124_chi.LOD1	0.275329
	7304	C	10.871938	-21.865536	23.343831	C	5	YLD124_chi.LOD1	0.358728
	7305	C	11.566650	-20.690513	24.067096	C	5	YLD124_chi.LOD1	-0.337707
	7306	H	11.604245	-19.787211	23.445548	H	5	YLD124_chi.LOD1	0.059176
	7307	H	11.019354	-20.430169	24.984468	H	5	YLD124_chi.LOD1	0.075606
	7308	H	12.593873	-20.936630	24.363066	H	5	YLD124_chi.LOD1	0.056098
	7309	C	10.106939	-24.056483	16.786402	C	5	YLD124_chi.LOD1	-0.311529
	7310	H	10.661850	-24.891654	16.335491	H	5	YLD124_chi.LOD1	0.071087
	7311	H	10.680191	-23.142639	16.586112	H	5	YLD124_chi.LOD1	0.058721
	7312	H	10.104321	-24.219315	17.871372	H	5	YLD124_chi.LOD1	0.056179
	7313	C	10.810039	-23.080300	24.295239	C	5	YLD124_chi.LOD1	-0.279876
	7314	H	10.340731	-23.947664	23.815967	H	5	YLD124_chi.LOD1	0.048405
	7315	H	11.806494	-23.386668	24.635132	H	5	YLD124_chi.LOD1	0.047411
	7316	H	10.220341	-22.836259	25.190729	H	5	YLD124_chi.LOD1	0.054899
	7317	C	9.431042	-21.445028	22.980963	C	5	YLD124_chi.LOD1	-0.273001
	7318	H	8.876996	-21.158952	23.886807	H	5	YLD124_chi.LOD1	0.0526
	7319	H	9.407065	-20.583469	22.302153	H	5	YLD124_chi.LOD1	0.034813
	7320	H	8.872961	-22.261858	22.507595	H	5	YLD124_chi.LOD1	0.061699
	7321	C	7.945170	-25.314545	16.502336	C	5	YLD124_chi.LOD1	-0.202774
	7322	H	7.881322	-25.515882	17.578900	H	5	YLD124_chi.LOD1	0.027959
	7323	H	6.926041	-25.311534	16.099983	H	5	YLD124_chi.LOD1	0.030756
	7324	H	8.482258	-26.157964	16.044849	H	5	YLD124_chi.LOD1	0.045471
	7325	C	8.763964	-23.798722	14.673467	C	5	YLD124_chi.LOD1	-0.266625
	7326	H	9.309768	-22.886236	14.403691	H	5	YLD124_chi.LOD1	0.041283
	7327	H	9.296227	-24.643950	14.213798	H	5	YLD124_chi.LOD1	0.059445
	7328	H	7.769396	-23.743391	14.217194	H	5	YLD124_chi.LOD1	0.054675
	7329	C	6.592136	-23.067321	18.317334	C	5	YLD124_chi.LOD1	-0.410828
	7330	H	7.086096	-23.741068	19.026424	H	5	YLD124_chi.LOD1	0.093855
	7331	H	6.201015	-22.215223	18.886827	H	5	YLD124_chi.LOD1	0.090546
	7332	H	5.727938	-23.598319	17.900076	H	5	YLD124_chi.LOD1	0.070213
	7333	C	6.790847	-21.563233	15.745617	C	5	YLD124_chi.LOD1	-0.460074
	7334	H	7.393270	-21.366395	14.850315	H	5	YLD124_chi.LOD1	0.099819
	7335	H	5.887759	-22.095528	15.426853	H	5	YLD124_chi.LOD1	0.10243
	7336	H	6.480934	-20.589387	16.143467	H	5	YLD124_chi.LOD1	0.086844
	7337	C	12.213173	-24.141177	21.706168	C	5	YLD124_chi.LOD1	-0.477029
	7338	H	12.247423	-24.577455	22.710489	H	5	YLD124_chi.LOD1	0.107463
	7339	H	11.426954	-24.661862	21.147351	H	5	YLD124_chi.LOD1	0.106999
	7340	H	13.169184	-24.356273	21.214440	H	5	YLD124_chi.LOD1	0.090486
	7341	C	13.435844	-21.404145	21.667701	C	5	YLD124_chi.LOD1	-0.470103
	7342	H	14.275052	-22.068143	21.426822	H	5	YLD124_chi.LOD1	0.112461
	7343	H	13.414443	-20.607561	20.915106	H	5	YLD124_chi.LOD1	0.098066
	7344	H	13.662313	-20.933962	22.632114	H	5	YLD124_chi.LOD1	0.083138
	7345	Si	11.868600	-22.349200	21.767900	Si	5	YLD124_chi.LOD1	0.770043
	7346	Si	7.734480	-22.517700	16.993900	Si	5	YLD124_chi.LOD1	0.73989
	7347	H	10.451298	-22.420261	18.478009	H	5	YLD124_chi.LOD1	-0.017464
	7348	H	10.353457	-18.938677	18.564485	H	5	YLD124_chi.LOD1	0.058354
	7349	H	8.658113	-20.160753	19.079547	H	5	YLD124_chi.LOD1	-0.04034
	7350	H	8.029923	-19.763699	17.468836	H	5	YLD124_chi.LOD1	-0.007901
	7351	H	9.895480	-18.882223	16.874814	H	5	YLD124_chi.LOD1	0.028132
	7352	H	12.883923	-21.163163	18.212835	H	5	YLD124_chi.LOD1	-0.011538
	7353	H	11.856390	-20.261175	19.306462	H	5	YLD124_chi.LOD1	0.020652
	7354	H	12.049756	-22.976895	18.999879	H	5	YLD124_chi.LOD1	-0.064856
	7355	C	13.063788	-23.340355	7.590718	C	5	YLD124_chi.LOD1	-0.299384
	7356	H	11.981153	-23.252659	7.741520	H	5	YLD124_chi.LOD1	0.066854
	7357	H	13.226217	-23.785839	6.601971	H	5	YLD124_chi.LOD1	0.072315
	7358	H	13.451266	-24.037878	8.339813	H	5	YLD124_chi.LOD1	0.027971
	7359	C	13.123501	-21.031077	6.617947	C	5	YLD124_chi.LOD1	-0.427943
	7360	H	12.046428	-20.905438	6.782202	H	5	YLD124_chi.LOD1	0.089807
	7361	H	13.584623	-20.036007	6.636862	H	5	YLD124_chi.LOD1	0.091303
	7362	H	13.259340	-21.444989	5.611536	H	5	YLD124_chi.LOD1	0.089757
	7363	C	20.112450	-21.949523	4.770487	C	5	YLD124_chi.LOD1	-0.158763
	7364	C	18.155180	-22.179680	3.375916	C	5	YLD124_chi.LOD1	-0.147279
	7365	C	20.063729	-20.566538	4.620329	C	5	YLD124_chi.LOD1	-0.065518
	7366	H	20.901027	-22.393766	5.370335	H	5	YLD124_chi.LOD1	0.080042
	7367	C	18.104073	-20.791159	3.234721	C	5	YLD124_chi.LOD1	-0.090746
	7368	H	17.412245	-22.782155	2.869819	H	5	YLD124_chi.LOD1	0.09871
	7369	C	19.054610	-19.981113	3.853016	C	5	YLD124_chi.LOD1	-0.09866
	7370	H	20.814338	-19.947660	5.103444	H	5	YLD124_chi.LOD1	0.104949
	7371	H	19.013616	-18.901854	3.735386	H	5	YLD124_chi.LOD1	0.102095
	7372	H	17.319493	-20.347697	2.628102	H	5	YLD124_chi.LOD1	0.105434
	7373	F	17.127784	-24.319630	3.328344	F	5	YLD124_chi.LOD1	-0.19867
	7374	F	17.624303	-25.936573	4.684526	F	5	YLD124_chi.LOD1	-0.154403
	7375	F	18.518877	-25.871814	2.702204	F	5	YLD124_chi.LOD1	-0.186491
	7376	C	3.151555	-14.979289	0.010339	C	1	YLD124.LOD1	-0.158041
	7377	C	3.278009	-16.279096	-0.381556	C	1	YLD124.LOD1	-0.174247
	7378	H	2.506113	-16.713261	-1.015100	H	1	YLD124.LOD1	0.11023
	7379	H	3.921297	-14.558713	0.655300	H	1	YLD124.LOD1	0.116594
	7380	N	-0.967154	-11.228078	-1.227279	N	1	YLD124.LOD1	-0.477879
	7381	C	0.035661	-12.140647	-0.945984	C	1	YLD124.LOD1	0.383639
	7382	C	0.001775	-13.465340	-1.459717	C	1	YLD124.LOD1	-0.278193
	7383	C	0.989199	-14.383605	-1.154873	C	1	YLD124.LOD1	-0.102205
	7384	C	2.086933	-14.058485	-0.328659	C	1	YLD124.LOD1	0.126725
	7385	C	2.121332	-12.740122	0.170414	C	1	YLD124.LOD1	-0.148338
	7386	C	1.141505	-11.806795	-0.123858	C	1	YLD124.LOD1	-0.248652
	7387	H	-0.806638	-13.781288	-2.107117	H	1	YLD124.LOD1	0.176041
	7388	H	0.905417	-15.381264	-1.575695	H	1	YLD124.LOD1	0.098595
	7389	H	2.950551	-12.440086	0.807579	H	1	YLD124.LOD1	0.105176
	7390	H	1.241254	-10.809831	0.286905	H	1	YLD124.LOD1	0.157607
	7391	C	4.345865	-17.173422	-0.026138	C	1	YLD124.LOD1	0.13089
	7392	C	4.310825	-18.474889	-0.473251	C	1	YLD124.LOD1	-0.298955
	7393	C	5.494749	-16.714548	0.847304	C	1	YLD124.LOD1	0.000678
	7394	H	3.481687	-18.782025	-1.108933	H	1	YLD124.LOD1	0.128536
	7395	C	6.779077	-17.562581	0.692664	C	1	YLD124.LOD1	0.312314
	7396	H	5.733480	-15.665555	0.635432	H	1	YLD124.LOD1	0.009572
	7397	C	6.400187	-19.058912	0.790757	C	1	YLD124.LOD1	0.132423
	7398	H	6.057433	-19.267999	1.816051	H	1	YLD124.LOD1	-0.011706
	7399	C	5.295693	-19.459664	-0.163788	C	1	YLD124.LOD1	0.094029
	7400	C	5.067288	-20.663256	-0.756078	C	1	YLD124.LOD1	-0.194272
	7401	H	4.211397	-20.836465	-1.408236	H	1	YLD124.LOD1	0.118653
	7402	C	5.942614	-21.754478	-0.556195	C	1	YLD124.LOD1	0.029031
	7403	C	5.766967	-22.980871	-1.164114	C	1	YLD124.LOD1	-0.298661
	7404	H	6.795478	-21.613774	0.097476	H	1	YLD124.LOD1	0.063317
	7405	C	6.610161	-24.107817	-1.054430	C	1	YLD124.LOD1	0.24754
	7406	C	6.459655	-25.302667	-1.749365	C	1	YLD124.LOD1	-0.281071
	7407	C	7.860377	-24.258899	-0.183216	C	1	YLD124.LOD1	-0.098074
	7408	C	7.545364	-26.185554	-1.416911	C	1	YLD124.LOD1	0.526995
	7409	C	5.398503	-25.552506	-2.656014	C	1	YLD124.LOD1	0.389724
	7410	O	8.384285	-25.563612	-0.553165	O	1	YLD124.LOD1	-0.351072
	7411	C	7.568587	-24.431462	1.409104	C	1	YLD124.LOD1	0.617997
	7412	C	9.023674	-23.228258	-0.355436	C	1	YLD124.LOD1	0.253109
	7413	C	7.855353	-27.462339	-1.830179	C	1	YLD124.LOD1	-0.451385
	7414	N	4.495744	-25.662939	-3.383592	N	1	YLD124.LOD1	-0.428829
	7415	F	6.617299	-25.369175	1.533694	F	1	YLD124.LOD1	-0.200469
	7416	F	8.618360	-24.809219	2.155773	F	1	YLD124.LOD1	-0.158364
	7417	F	7.084964	-23.281793	1.930113	F	1	YLD124.LOD1	-0.193377
	7418	C	8.683731	-22.164613	-1.204648	C	1	YLD124.LOD1	-0.158716
	7419	C	10.321557	-23.289241	0.167504	C	1	YLD124.LOD1	-0.162688
	7420	C	7.040331	-28.186898	-2.746980	C	1	YLD124.LOD1	0.447489
	7421	C	9.029702	-28.105594	-1.337541	C	1	YLD124.LOD1	0.491336
	7422	H	7.683770	-22.108003	-1.624276	H	1	YLD124.LOD1	0.085247
	7423	C	9.615106	-21.179336	-1.519336	C	1	YLD124.LOD1	-0.074329
	7424	C	11.251049	-22.293484	-0.142833	C	1	YLD124.LOD1	-0.055824
	7425	H	10.626557	-24.104249	0.810889	H	1	YLD124.LOD1	0.099228
	7426	N	6.403656	-28.814162	-3.493793	N	1	YLD124.LOD1	-0.454587
	7427	N	9.986198	-28.641697	-0.945449	N	1	YLD124.LOD1	-0.481156
	7428	H	9.332972	-20.365932	-2.181560	H	1	YLD124.LOD1	0.111202
	7429	C	10.903837	-21.238293	-0.984400	C	1	YLD124.LOD1	-0.106678
	7430	H	12.254056	-22.356200	0.269896	H	1	YLD124.LOD1	0.095951
	7431	H	11.632261	-20.469750	-1.227470	H	1	YLD124.LOD1	0.103827
	7432	H	4.911745	-23.105440	-1.826109	H	1	YLD124.LOD1	0.159396
	7433	H	7.296552	-19.668441	0.636617	H	1	YLD124.LOD1	-0.052081
	7434	H	5.167891	-16.742872	1.898417	H	1	YLD124.LOD1	-0.003289
	7435	C	-2.020519	-11.546920	-2.120542	C	1	YLD124.LOD1	0.198954
	7436	C	-0.908573	-9.881429	-0.757236	C	1	YLD124.LOD1	0.115128
	7437	C	-0.095313	-8.924242	-1.437381	C	1	YLD124.LOD1	0.306486
	7438	C	-1.660955	-11.805075	-3.473426	C	1	YLD124.LOD1	0.28632
	7439	O	-0.348745	-11.575100	-3.673230	O	1	YLD124.LOD1	-0.606883
	7440	O	-0.543893	-8.623650	-2.671640	O	1	YLD124.LOD1	-0.600198
	7441	C	-1.180042	-6.423863	-4.338719	C	1	YLD124.LOD1	0.267162
	7442	C	2.487270	-11.449967	-4.566635	C	1	YLD124.LOD1	0.369124
	7443	C	3.422082	-11.871700	-5.722292	C	1	YLD124.LOD1	-0.324271
	7444	H	3.151479	-11.390255	-6.670335	H	1	YLD124.LOD1	0.053925
	7445	H	4.458945	-11.583419	-5.497089	H	1	YLD124.LOD1	0.070181
	7446	H	3.416255	-12.956465	-5.883766	H	1	YLD124.LOD1	0.052098
	7447	C	-2.286749	-5.426035	-4.746125	C	1	YLD124.LOD1	-0.316887
	7448	H	-1.912972	-4.740410	-5.520004	H	1	YLD124.LOD1	0.07213
	7449	H	-3.168099	-5.931535	-5.160188	H	1	YLD124.LOD1	0.059956
	7450	H	-2.619615	-4.809810	-3.901658	H	1	YLD124.LOD1	0.057948
	7451	C	2.951863	-12.138273	-3.264921	C	1	YLD124.LOD1	-0.260833
	7452	H	2.310266	-11.875957	-2.415443	H	1	YLD124.LOD1	0.041714
	7453	H	2.950323	-13.230861	-3.357026	H	1	YLD124.LOD1	0.041636
	7454	H	3.978061	-11.833151	-3.013741	H	1	YLD124.LOD1	0.048242
	7455	C	2.583877	-9.919774	-4.383619	C	1	YLD124.LOD1	-0.256632
	7456	H	3.623185	-9.624043	-4.179236	H	1	YLD124.LOD1	0.046696
	7457	H	2.262227	-9.372942	-5.278522	H	1	YLD124.LOD1	0.030906
	7458	H	1.978118	-9.568974	-3.539355	H	1	YLD124.LOD1	0.051975
	7459	C	0.033716	-5.638778	-3.795426	C	1	YLD124.LOD1	-0.203727
	7460	H	-0.232872	-5.021078	-2.928928	H	1	YLD124.LOD1	0.027457
	7461	H	0.846011	-6.308923	-3.492894	H	1	YLD124.LOD1	0.031775
	7462	H	0.427437	-4.963028	-4.568260	H	1	YLD124.LOD1	0.046776
	7463	C	-0.741353	-7.227890	-5.582064	C	1	YLD124.LOD1	-0.249027
	7464	H	-1.578035	-7.778302	-6.029846	H	1	YLD124.LOD1	0.037596
	7465	H	-0.346792	-6.551445	-6.353919	H	1	YLD124.LOD1	0.055765
	7466	H	0.044711	-7.951269	-5.338671	H	1	YLD124.LOD1	0.04836
	7467	C	-3.274855	-8.605551	-3.582780	C	1	YLD124.LOD1	-0.409962
	7468	H	-3.029218	-9.159598	-4.495718	H	1	YLD124.LOD1	0.090944
	7469	H	-3.596639	-9.333764	-2.828202	H	1	YLD124.LOD1	0.090896
	7470	H	-4.139601	-7.967675	-3.802715	H	1	YLD124.LOD1	0.069902
	7471	C	-2.340549	-6.726399	-1.460804	C	1	YLD124.LOD1	-0.458602
	7472	H	-2.669972	-7.425080	-0.681999	H	1	YLD124.LOD1	0.097974
	7473	H	-1.510895	-6.139279	-1.051359	H	1	YLD124.LOD1	0.103309
	7474	H	-3.174068	-6.038915	-1.649646	H	1	YLD124.LOD1	0.085827
	7475	C	0.528797	-13.809924	-5.053191	C	1	YLD124.LOD1	-0.493974
	7476	H	0.769907	-14.289420	-4.098123	H	1	YLD124.LOD1	0.11158
	7477	H	-0.498494	-14.090457	-5.312829	H	1	YLD124.LOD1	0.113577
	7478	H	1.192300	-14.230892	-5.817485	H	1	YLD124.LOD1	0.09477
	7479	C	0.084530	-11.218218	-6.496684	C	1	YLD124.LOD1	-0.483575
	7480	H	-0.952092	-11.511841	-6.702214	H	1	YLD124.LOD1	0.116965
	7481	H	0.121395	-10.123216	-6.472090	H	1	YLD124.LOD1	0.100121
	7482	H	0.689416	-11.545426	-7.350798	H	1	YLD124.LOD1	0.088084
	7483	Si	0.677477	-11.994600	-4.944480	Si	1	YLD124.LOD1	0.763339
	7484	Si	-1.854500	-7.610030	-2.991170	Si	1	YLD124.LOD1	0.748472
	7485	H	-1.894539	-12.851358	-3.719500	H	1	YLD124.LOD1	-0.009815
	7486	H	-1.915267	-9.457389	-0.811417	H	1	YLD124.LOD1	0.057511
	7487	H	0.020237	-8.001665	-0.850520	H	1	YLD124.LOD1	-0.045737
	7488	H	0.896752	-9.394270	-1.512897	H	1	YLD124.LOD1	-0.011652
	7489	H	-0.644028	-9.911814	0.304943	H	1	YLD124.LOD1	0.023801
	7490	H	-2.545617	-12.422054	-1.723346	H	1	YLD124.LOD1	-0.001966
	7491	H	-2.742044	-10.725383	-2.109483	H	1	YLD124.LOD1	0.031172
	7492	H	-2.253513	-11.169886	-4.146301	H	1	YLD124.LOD1	-0.066029
	7493	C	7.386727	-17.248232	-0.670013	C	1	YLD124.LOD1	-0.185058
	7494	H	7.684255	-16.194656	-0.733586	H	1	YLD124.LOD1	0.04722
	7495	H	8.290712	-17.857303	-0.789685	H	1	YLD124.LOD1	0.027573
	7496	H	6.725058	-17.461740	-1.515225	H	1	YLD124.LOD1	0.00699
	7497	C	7.687949	-17.191018	1.818046	C	1	YLD124.LOD1	-0.347891
	7498	H	7.960776	-16.129112	1.788160	H	1	YLD124.LOD1	0.075067
	7499	H	7.252123	-17.398248	2.803065	H	1	YLD124.LOD1	0.071859
	7500	H	8.612849	-17.773812	1.730646	H	1	YLD124.LOD1	0.077505
	7501	C	-28.956787	21.711745	3.150074	C	1	YLD124_chi.LOD1	-0.150166
	7502	C	-28.978706	20.575508	2.396720	C	1	YLD124_chi.LOD1	-0.190723
	7503	H	-28.060756	20.000324	2.286037	H	1	YLD124_chi.LOD1	0.123134
	7504	H	-29.876232	22.288246	3.237371	H	1	YLD124_chi.LOD1	0.111619
	7505	N	-24.582454	24.141249	5.891822	N	1	YLD124_chi.LOD1	-0.506176
	7506	C	-25.645641	23.525744	5.252643	C	1	YLD124_chi.LOD1	0.404469
	7507	C	-25.491197	22.284773	4.577478	C	1	YLD124_chi.LOD1	-0.281203
	7508	C	-26.542993	21.694745	3.901480	C	1	YLD124_chi.LOD1	-0.112562
	7509	C	-27.826768	22.280424	3.854065	C	1	YLD124_chi.LOD1	0.131862
	7510	C	-27.981583	23.498098	4.547999	C	1	YLD124_chi.LOD1	-0.140167
	7511	C	-26.939413	24.105211	5.228263	C	1	YLD124_chi.LOD1	-0.26473
	7512	H	-24.536527	21.773821	4.582381	H	1	YLD124_chi.LOD1	0.177954
	7513	H	-26.361051	20.748568	3.400324	H	1	YLD124_chi.LOD1	0.098859
	7514	H	-28.955725	23.982502	4.549789	H	1	YLD124_chi.LOD1	0.103807
	7515	H	-27.135719	25.036935	5.743968	H	1	YLD124_chi.LOD1	0.161189
	7516	C	-30.112451	20.057782	1.680185	C	1	YLD124_chi.LOD1	0.100982
	7517	C	-29.962419	18.931523	0.903187	C	1	YLD124_chi.LOD1	-0.303623
	7518	C	-31.456683	20.752665	1.737469	C	1	YLD124_chi.LOD1	0.096207
	7519	H	-28.990695	18.440305	0.884768	H	1	YLD124_chi.LOD1	0.124941
	7520	C	-32.651480	19.842285	1.369242	C	1	YLD124_chi.LOD1	0.409462
	7521	H	-31.621790	21.169259	2.738334	H	1	YLD124_chi.LOD1	-0.020765
	7522	C	-32.320528	19.096726	0.055189	C	1	YLD124_chi.LOD1	-0.014279
	7523	H	-32.278250	19.830618	-0.764545	H	1	YLD124_chi.LOD1	-0.02177
	7524	C	-30.996209	18.364556	0.099794	C	1	YLD124_chi.LOD1	0.179445
	7525	C	-30.608952	17.250097	-0.576160	C	1	YLD124_chi.LOD1	-0.27725
	7526	H	-29.609452	16.827188	-0.476162	H	1	YLD124_chi.LOD1	0.132087
	7527	C	-31.495399	16.580145	-1.449462	C	1	YLD124_chi.LOD1	0.141075
	7528	C	-31.140783	15.448917	-2.155944	C	1	YLD124_chi.LOD1	-0.327608
	7529	H	-32.492112	16.985573	-1.579228	H	1	YLD124_chi.LOD1	-0.027316
	7530	C	-31.949560	14.724081	-3.057940	C	1	YLD124_chi.LOD1	0.260653
	7531	C	-31.540237	13.628781	-3.810147	C	1	YLD124_chi.LOD1	-0.287606
	7532	C	-33.418302	14.976928	-3.408994	C	1	YLD124_chi.LOD1	-0.056548
	7533	C	-32.629491	13.187796	-4.639570	C	1	YLD124_chi.LOD1	0.509074
	7534	C	-30.233268	13.082197	-3.749449	C	1	YLD124_chi.LOD1	0.396907
	7535	O	-33.701601	13.991764	-4.441523	O	1	YLD124_chi.LOD1	-0.366332
	7536	C	-33.825449	16.375406	-3.982808	C	1	YLD124_chi.LOD1	0.253806
	7537	C	-34.484452	14.577228	-2.236350	C	1	YLD124_chi.LOD1	0.598114
	7538	C	-32.735628	12.163272	-5.554139	C	1	YLD124_chi.LOD1	-0.43234
	7539	N	-29.136478	12.707530	-3.634526	N	1	YLD124_chi.LOD1	-0.430249
	7540	C	-31.656075	11.277832	-5.837478	C	1	YLD124_chi.LOD1	0.437474
	7541	C	-33.960230	11.959766	-6.257316	C	1	YLD124_chi.LOD1	0.49223
	7542	N	-30.800330	10.532559	-6.099829	N	1	YLD124_chi.LOD1	-0.451871
	7543	N	-34.952996	11.783332	-6.839829	N	1	YLD124_chi.LOD1	-0.482758
	7544	H	-30.128212	15.067978	-2.034562	H	1	YLD124_chi.LOD1	0.157364
	7545	H	-33.140231	18.412559	-0.187669	H	1	YLD124_chi.LOD1	0.040059
	7546	H	-31.433783	21.614799	1.052712	H	1	YLD124_chi.LOD1	-0.024244
	7547	C	-23.297158	23.545532	5.987725	C	1	YLD124_chi.LOD1	0.240322
	7548	C	-24.686316	25.361266	6.632955	C	1	YLD124_chi.LOD1	0.113854
	7549	C	-24.348787	25.416892	8.018184	C	1	YLD124_chi.LOD1	0.29958
	7550	C	-23.086408	22.606096	7.034271	C	1	YLD124_chi.LOD1	0.285774
	7551	O	-24.193800	22.467000	7.789580	O	1	YLD124_chi.LOD1	-0.61175
	7552	O	-23.029000	25.285500	8.255780	O	1	YLD124_chi.LOD1	-0.599726
	7553	C	-22.381837	26.414194	10.801137	C	1	YLD124_chi.LOD1	0.275329
	7554	C	-24.834003	19.574077	7.743651	C	1	YLD124_chi.LOD1	0.358728
	7555	C	-26.261949	18.991980	7.836117	C	1	YLD124_chi.LOD1	-0.337707
	7556	H	-27.012693	19.670238	7.411807	H	1	YLD124_chi.LOD1	0.059176
	7557	H	-26.325709	18.047382	7.277052	H	1	YLD124_chi.LOD1	0.075606
	7558	H	-26.553490	18.774674	8.871076	H	1	YLD124_chi.LOD1	0.056098
	7559	C	-23.262093	25.187578	11.127814	C	1	YLD124_chi.LOD1	-0.311529
	7560	H	-23.494832	25.162257	12.202034	H	1	YLD124_chi.LOD1	0.071087
	7561	H	-24.218644	25.208963	10.590788	H	1	YLD124_chi.LOD1	0.058721
	7562	H	-22.761883	24.242120	10.883723	H	1	YLD124_chi.LOD1	0.056179
	7563	C	-23.830450	18.546085	8.310020	C	1	YLD124_chi.LOD1	-0.279876
	7564	H	-22.802028	18.925398	8.282765	H	1	YLD124_chi.LOD1	0.048405
	7565	H	-24.058983	18.278547	9.348531	H	1	YLD124_chi.LOD1	0.047411
	7566	H	-23.857961	17.618391	7.720249	H	1	YLD124_chi.LOD1	0.054899
	7567	C	-24.496371	19.831676	6.258953	C	1	YLD124_chi.LOD1	-0.273001
	7568	H	-24.578477	18.899555	5.681225	H	1	YLD124_chi.LOD1	0.0526
	7569	H	-25.176090	20.558671	5.797323	H	1	YLD124_chi.LOD1	0.034813
	7570	H	-23.471573	20.200327	6.130002	H	1	YLD124_chi.LOD1	0.061699
	7571	C	-21.069580	26.326321	11.610318	C	1	YLD124_chi.LOD1	-0.202774
	7572	H	-20.506085	25.412981	11.382531	H	1	YLD124_chi.LOD1	0.027959
	7573	H	-20.415624	27.182853	11.412289	H	1	YLD124_chi.LOD1	0.030756
	7574	H	-21.286873	26.314312	12.688164	H	1	YLD124_chi.LOD1	0.045471
	7575	C	-23.134483	27.699925	11.207459	C	1	YLD124_chi.LOD1	-0.266625
	7576	H	-24.095623	27.793985	10.687196	H	1	YLD124_chi.LOD1	0.041283
	7577	H	-23.347947	27.691926	12.286059	H	1	YLD124_chi.LOD1	0.059445
	7578	H	-22.545261	28.597916	10.991027	H	1	YLD124_chi.LOD1	0.054675
	7579	C	-20.257921	25.998440	8.570684	C	1	YLD124_chi.LOD1	-0.410828
	7580	H	-20.148898	24.930816	8.349249	H	1	YLD124_chi.LOD1	0.093855
	7581	H	-19.867812	26.557045	7.710949	H	1	YLD124_chi.LOD1	0.090546
	7582	H	-19.609473	26.229436	9.424532	H	1	YLD124_chi.LOD1	0.070213
	7583	C	-22.354028	28.083392	8.179848	C	1	YLD124_chi.LOD1	-0.460074
	7584	H	-21.934971	28.166175	7.169520	H	1	YLD124_chi.LOD1	0.099819
	7585	H	-23.431094	28.271319	8.108220	H	1	YLD124_chi.LOD1	0.10243
	7586	H	-21.913544	28.891379	8.776369	H	1	YLD124_chi.LOD1	0.086844
	7587	C	-23.450833	21.087180	10.080033	C	1	YLD124_chi.LOD1	-0.477029
	7588	H	-23.512268	20.134040	10.616619	H	1	YLD124_chi.LOD1	0.107463
	7589	H	-22.446804	21.156711	9.645728	H	1	YLD124_chi.LOD1	0.106999
	7590	H	-23.551640	21.893407	10.816141	H	1	YLD124_chi.LOD1	0.090486
	7591	C	-26.343980	21.620781	9.506283	C	1	YLD124_chi.LOD1	-0.470103
	7592	H	-26.548606	22.693878	9.407405	H	1	YLD124_chi.LOD1	0.112461
	7593	H	-27.180022	21.078588	9.049707	H	1	YLD124_chi.LOD1	0.098066
	7594	H	-26.351994	21.387674	10.577754	H	1	YLD124_chi.LOD1	0.083138
	7595	Si	-24.718700	21.199600	8.770960	Si	1	YLD124_chi.LOD1	0.770043
	7596	Si	-22.000300	26.445000	8.921790	Si	1	YLD124_chi.LOD1	0.73989
	7597	H	-22.806179	21.633707	6.603765	H	1	YLD124_chi.LOD1	-0.017464
	7598	H	-24.010781	26.086803	6.170941	H	1	YLD124_chi.LOD1	0.058354
	7599	H	-24.715540	26.340083	8.489203	H	1	YLD124_chi.LOD1	-0.04034
	7600	H	-24.890119	24.574866	8.475095	H	1	YLD124_chi.LOD1	-0.007901
	7601	H	-25.700660	25.743864	6.478544	H	1	YLD124_chi.LOD1	0.028132
	7602	H	-23.094849	23.054362	5.030480	H	1	YLD124_chi.LOD1	-0.011538
	7603	H	-22.555138	24.343074	6.085639	H	1	YLD124_chi.LOD1	0.020652
	7604	H	-22.252461	22.935585	7.669490	H	1	YLD124_chi.LOD1	-0.064856
	7605	C	-32.857309	18.860047	2.510622	C	1	YLD124_chi.LOD1	-0.299384
	7606	H	-33.120020	19.383451	3.437748	H	1	YLD124_chi.LOD1	0.066854
	7607	H	-33.697366	18.205372	2.249540	H	1	YLD124_chi.LOD1	0.072315
	7608	H	-31.990221	18.225269	2.718078	H	1	YLD124_chi.LOD1	0.027971
	7609	C	-33.833279	20.736286	1.165325	C	1	YLD124_chi.LOD1	-0.427943
	7610	H	-34.083002	21.294417	2.075809	H	1	YLD124_chi.LOD1	0.089807
	7611	H	-33.686475	21.461943	0.355989	H	1	YLD124_chi.LOD1	0.091303
	7612	H	-34.700838	20.116935	0.907672	H	1	YLD124_chi.LOD1	0.089757
	7613	C	-32.934518	16.871269	-4.946636	C	1	YLD124_chi.LOD1	-0.158763
	7614	C	-34.941784	17.146087	-3.633601	C	1	YLD124_chi.LOD1	-0.147279
	7615	C	-33.148592	18.110391	-5.543556	C	1	YLD124_chi.LOD1	-0.065518
	7616	H	-32.068524	16.282780	-5.234318	H	1	YLD124_chi.LOD1	0.080042
	7617	C	-35.148642	18.392849	-4.228020	C	1	YLD124_chi.LOD1	-0.090746
	7618	H	-35.660999	16.789555	-2.907875	H	1	YLD124_chi.LOD1	0.09871
	7619	C	-34.257199	18.878821	-5.182559	C	1	YLD124_chi.LOD1	-0.09866
	7620	H	-32.448563	18.474383	-6.290077	H	1	YLD124_chi.LOD1	0.104949
	7621	H	-34.425773	19.846867	-5.646011	H	1	YLD124_chi.LOD1	0.102095
	7622	H	-36.019418	18.977796	-3.945539	H	1	YLD124_chi.LOD1	0.105434
	7623	F	-35.188216	13.483187	-2.564790	F	1	YLD124_chi.LOD1	-0.19867
	7624	F	-35.358667	15.545391	-1.917856	F	1	YLD124_chi.LOD1	-0.154403
	7625	F	-33.767628	14.289683	-1.126749	F	1	YLD124_chi.LOD1	-0.186491
	7626	C	-23.598977	-26.121874	-8.552606	C	1	YLD124.LOD1	-0.158041
	7627	C	-22.725189	-25.852403	-7.541196	C	1	YLD124.LOD1	-0.174247
	7628	H	-23.121718	-25.590211	-6.561543	H	1	YLD124.LOD1	0.11023
	7629	H	-23.192634	-26.369125	-9.531951	H	1	YLD124.LOD1	0.116594
	7630	N	-29.305174	-26.138596	-8.474648	N	1	YLD124.LOD1	-0.477879
	7631	C	-27.920457	-26.147799	-8.479327	C	1	YLD124.LOD1	0.383639
	7632	C	-27.170401	-25.847677	-7.310044	C	1	YLD124.LOD1	-0.278193
	7633	C	-25.788143	-25.829686	-7.323574	C	1	YLD124.LOD1	-0.102205
	7634	C	-25.045428	-26.115998	-8.489659	C	1	YLD124.LOD1	0.126725
	7635	C	-25.793916	-26.422968	-9.644593	C	1	YLD124.LOD1	-0.148338
	7636	C	-27.178549	-26.445717	-9.650248	C	1	YLD124.LOD1	-0.248652
	7637	H	-27.674531	-25.626661	-6.377581	H	1	YLD124.LOD1	0.176041
	7638	H	-25.272099	-25.590011	-6.398539	H	1	YLD124.LOD1	0.098595
	7639	H	-25.266357	-26.655930	-10.567098	H	1	YLD124.LOD1	0.105176
	7640	H	-27.684712	-26.701292	-10.572796	H	1	YLD124.LOD1	0.157607
	7641	C	-21.290630	-25.861871	-7.632899	C	1	YLD124.LOD1	0.13089
	7642	C	-20.543175	-25.528794	-6.525955	C	1	YLD124.LOD1	-0.298955
	7643	C	-20.590284	-26.210576	-8.929555	C	1	YLD124.LOD1	0.000678
	7644	H	-21.065658	-25.291650	-5.600390	H	1	YLD124.LOD1	0.128536
	7645	C	-19.135351	-26.702254	-8.745179	C	1	YLD124.LOD1	0.312314
	7646	H	-21.158670	-26.976362	-9.470644	H	1	YLD124.LOD1	0.009572
	7647	C	-18.393991	-25.718152	-7.810237	C	1	YLD124.LOD1	0.132423
	7648	H	-18.291463	-24.751660	-8.327738	H	1	YLD124.LOD1	-0.011706
	7649	C	-19.117639	-25.475603	-6.502886	C	1	YLD124.LOD1	0.094029
	7650	C	-18.603920	-25.163381	-5.282116	C	1	YLD124.LOD1	-0.194272
	7651	H	-19.237955	-24.982300	-4.414319	H	1	YLD124.LOD1	0.118653
	7652	C	-17.208915	-25.064991	-5.079147	C	1	YLD124.LOD1	0.029031
	7653	C	-16.645373	-24.784500	-3.851058	C	1	YLD124.LOD1	-0.298661
	7654	H	-16.555161	-25.228264	-5.927914	H	1	YLD124.LOD1	0.063317
	7655	C	-15.268234	-24.708216	-3.549922	C	1	YLD124.LOD1	0.24754
	7656	C	-14.725394	-24.513705	-2.284717	C	1	YLD124.LOD1	-0.281071
	7657	C	-14.090421	-24.838912	-4.519743	C	1	YLD124.LOD1	-0.098074
	7658	C	-13.290301	-24.554133	-2.372200	C	1	YLD124.LOD1	0.526995
	7659	C	-15.508284	-24.336271	-1.115924	C	1	YLD124.LOD1	0.389724
	7660	O	-12.923100	-24.795315	-3.654249	O	1	YLD124.LOD1	-0.351072
	7661	C	-13.859332	-23.554747	-5.493295	C	1	YLD124.LOD1	0.617997
	7662	C	-13.973854	-26.134263	-5.387915	C	1	YLD124.LOD1	0.253109
	7663	C	-12.304218	-24.420938	-1.419854	C	1	YLD124.LOD1	-0.451385
	7664	N	-16.233163	-24.204196	-0.213901	N	1	YLD124.LOD1	-0.428829
	7665	F	-13.895079	-22.462167	-4.715627	F	1	YLD124.LOD1	-0.200469
	7666	F	-12.700639	-23.539052	-6.171103	F	1	YLD124.LOD1	-0.158364
	7667	F	-14.863771	-23.454011	-6.392202	F	1	YLD124.LOD1	-0.193377
	7668	C	-15.184510	-26.834974	-5.494583	C	1	YLD124.LOD1	-0.158716
	7669	C	-12.820917	-26.682581	-5.963911	C	1	YLD124.LOD1	-0.162688
	7670	C	-12.596963	-24.181225	-0.046314	C	1	YLD124.LOD1	0.447489
	7671	C	-10.931698	-24.522590	-1.795911	C	1	YLD124.LOD1	0.491336
	7672	H	-16.085283	-26.426517	-5.046269	H	1	YLD124.LOD1	0.085247
	7673	C	-15.245758	-28.051868	-6.167395	C	1	YLD124.LOD1	-0.074329
	7674	C	-12.887902	-27.899593	-6.646692	C	1	YLD124.LOD1	-0.055824
	7675	H	-11.865215	-26.180768	-5.886300	H	1	YLD124.LOD1	0.099228
	7676	N	-12.791245	-23.985478	1.085270	N	1	YLD124.LOD1	-0.454587
	7677	N	-9.807583	-24.605673	-2.088297	N	1	YLD124.LOD1	-0.481156
	7678	H	-16.192236	-28.580326	-6.235769	H	1	YLD124.LOD1	0.111202
	7679	C	-14.095519	-28.587330	-6.751085	C	1	YLD124.LOD1	-0.106678
	7680	H	-11.984202	-28.311996	-7.086637	H	1	YLD124.LOD1	0.095951
	7681	H	-14.140979	-29.536397	-7.277914	H	1	YLD124.LOD1	0.103827
	7682	H	-17.313244	-24.632597	-3.004871	H	1	YLD124.LOD1	0.159396
	7683	H	-17.376296	-26.082962	-7.637130	H	1	YLD124.LOD1	-0.052081
	7684	H	-20.591076	-25.320464	-9.577767	H	1	YLD124.LOD1	-0.003289
	7685	C	-30.126018	-25.916684	-7.336139	C	1	YLD124.LOD1	0.198954
	7686	C	-30.079652	-26.491765	-9.621366	C	1	YLD124.LOD1	0.115128
	7687	C	-30.443674	-27.859071	-9.783136	C	1	YLD124.LOD1	0.306486
	7688	C	-31.356290	-26.616412	-7.145918	C	1	YLD124.LOD1	0.28632
	7689	O	-32.346800	-26.204200	-7.960480	O	1	YLD124.LOD1	-0.606883
	7690	O	-30.064400	-28.585000	-8.713500	O	1	YLD124.LOD1	-0.600198
	7691	C	-30.051285	-31.167999	-7.551234	C	1	YLD124.LOD1	0.267162
	7692	C	-34.234539	-24.434541	-9.430765	C	1	YLD124.LOD1	0.369124
	7693	C	-35.124503	-23.184138	-9.252635	C	1	YLD124.LOD1	-0.324271
	7694	H	-34.536460	-22.286830	-9.022760	H	1	YLD124.LOD1	0.053925
	7695	H	-35.680767	-22.978366	-10.178452	H	1	YLD124.LOD1	0.070181
	7696	H	-35.864258	-23.313761	-8.453395	H	1	YLD124.LOD1	0.052098
	7697	C	-29.278400	-32.501291	-7.444366	C	1	YLD124.LOD1	-0.316887
	7698	H	-29.817699	-33.200773	-6.789720	H	1	YLD124.LOD1	0.07213
	7699	H	-29.164039	-32.992861	-8.418552	H	1	YLD124.LOD1	0.059956
	7700	H	-28.276817	-32.365919	-7.017559	H	1	YLD124.LOD1	0.057948
	7701	C	-35.127529	-25.643182	-9.785489	C	1	YLD124.LOD1	-0.260833
	7702	H	-34.539115	-26.559543	-9.912460	H	1	YLD124.LOD1	0.041714
	7703	H	-35.880152	-25.836574	-9.011930	H	1	YLD124.LOD1	0.041636
	7704	H	-35.666081	-25.460280	-10.726650	H	1	YLD124.LOD1	0.048242
	7705	C	-33.251507	-24.182119	-10.594487	C	1	YLD124.LOD1	-0.256632
	7706	H	-33.803035	-23.954701	-11.518332	H	1	YLD124.LOD1	0.046696
	7707	H	-32.584795	-23.333283	-10.398769	H	1	YLD124.LOD1	0.030906
	7708	H	-32.626920	-25.059638	-10.800979	H	1	YLD124.LOD1	0.051975
	7709	C	-30.197143	-30.553649	-6.141966	C	1	YLD124.LOD1	-0.203727
	7710	H	-29.222756	-30.369990	-5.672625	H	1	YLD124.LOD1	0.027457
	7711	H	-30.740970	-29.602901	-6.169812	H	1	YLD124.LOD1	0.031775
	7712	H	-30.751939	-31.237554	-5.483635	H	1	YLD124.LOD1	0.046776
	7713	C	-31.457847	-31.443493	-8.126125	C	1	YLD124.LOD1	-0.249027
	7714	H	-31.410602	-31.914811	-9.115633	H	1	YLD124.LOD1	0.037596
	7715	H	-32.012281	-32.126617	-7.466609	H	1	YLD124.LOD1	0.055765
	7716	H	-32.043247	-30.522180	-8.220488	H	1	YLD124.LOD1	0.04836
	7717	C	-28.919462	-30.615507	-10.403062	C	1	YLD124.LOD1	-0.409962
	7718	H	-29.890598	-30.873898	-10.839972	H	1	YLD124.LOD1	0.090944
	7719	H	-28.441350	-29.882929	-11.064853	H	1	YLD124.LOD1	0.090896
	7720	H	-28.296132	-31.517858	-10.419403	H	1	YLD124.LOD1	0.069902
	7721	C	-27.433774	-29.547778	-8.045235	C	1	YLD124.LOD1	-0.458602
	7722	H	-26.924150	-28.816142	-8.684145	H	1	YLD124.LOD1	0.097974
	7723	H	-27.490318	-29.125273	-7.035793	H	1	YLD124.LOD1	0.103309
	7724	H	-26.792528	-30.436446	-7.999163	H	1	YLD124.LOD1	0.085827
	7725	C	-34.442032	-25.227373	-6.435755	C	1	YLD124.LOD1	-0.493974
	7726	H	-35.008041	-26.140199	-6.651601	H	1	YLD124.LOD1	0.11158
	7727	H	-33.885077	-25.396693	-5.507009	H	1	YLD124.LOD1	0.113577
	7728	H	-35.161775	-24.421655	-6.250328	H	1	YLD124.LOD1	0.09477
	7729	C	-32.231594	-23.400866	-7.316206	C	1	YLD124.LOD1	-0.483575
	7730	H	-31.680459	-23.625833	-6.394966	H	1	YLD124.LOD1	0.116965
	7731	H	-31.498342	-23.133860	-8.085648	H	1	YLD124.LOD1	0.100121
	7732	H	-32.838538	-22.508685	-7.121030	H	1	YLD124.LOD1	0.088084
	7733	Si	-33.293400	-24.818100	-7.793120	Si	1	YLD124.LOD1	0.763339
	7734	Si	-29.094400	-29.965600	-8.698550	Si	1	YLD124.LOD1	0.748472
	7735	H	-31.119314	-27.669765	-7.355948	H	1	YLD124.LOD1	-0.009815
	7736	H	-30.998820	-25.899277	-9.604992	H	1	YLD124.LOD1	0.057511
	7737	H	-31.530394	-27.948149	-9.924596	H	1	YLD124.LOD1	-0.045737
	7738	H	-29.959000	-28.258137	-10.686830	H	1	YLD124.LOD1	-0.011652
	7739	H	-29.520451	-26.168169	-10.505510	H	1	YLD124.LOD1	0.023801
	7740	H	-29.486796	-26.041102	-6.455645	H	1	YLD124.LOD1	-0.001966
	7741	H	-30.420557	-24.863810	-7.354785	H	1	YLD124.LOD1	0.031172
	7742	H	-31.689602	-26.557501	-6.100555	H	1	YLD124.LOD1	-0.066029
	7743	C	-19.186463	-28.096348	-8.129610	C	1	YLD124.LOD1	-0.185058
	7744	H	-19.685225	-28.804464	-8.802212	H	1	YLD124.LOD1	0.04722
	7745	H	-18.156529	-28.443787	-7.984698	H	1	YLD124.LOD1	0.027573
	7746	H	-19.693646	-28.139574	-7.160759	H	1	YLD124.LOD1	0.00699
	7747	C	-18.497975	-26.701966	-10.095858	C	1	YLD124.LOD1	-0.347891
	7748	H	-19.013127	-27.377143	-10.789924	H	1	YLD124.LOD1	0.075067
	7749	H	-18.471859	-25.705565	-10.553736	H	1	YLD124.LOD1	0.071859
	7750	H	-17.463839	-27.053459	-9.997155	H	1	YLD124.LOD1	0.077505
	7751	C	-18.167462	-0.594920	6.481531	C	1	YLD124_chi.LOD1	-0.150166
	7752	C	-18.959676	-1.664307	6.185111	C	1	YLD124_chi.LOD1	-0.190723
	7753	H	-19.623690	-2.055876	6.954188	H	1	YLD124_chi.LOD1	0.123134
	7754	H	-17.494100	-0.224764	5.710220	H	1	YLD124_chi.LOD1	0.111619
	7755	N	-17.654867	2.267089	11.390769	N	1	YLD124_chi.LOD1	-0.506176
	7756	C	-17.811690	1.589077	10.193493	C	1	YLD124_chi.LOD1	0.404469
	7757	C	-18.759554	0.539873	10.050541	C	1	YLD124_chi.LOD1	-0.281203
	7758	C	-18.882591	-0.165923	8.868130	C	1	YLD124_chi.LOD1	-0.112562
	7759	C	-18.088030	0.121558	7.737036	C	1	YLD124_chi.LOD1	0.131862
	7760	C	-17.167917	1.181018	7.875529	C	1	YLD124_chi.LOD1	-0.140167
	7761	C	-17.028753	1.897374	9.052360	C	1	YLD124_chi.LOD1	-0.26473
	7762	H	-19.409875	0.273431	10.874302	H	1	YLD124_chi.LOD1	0.177954
	7763	H	-19.621752	-0.960317	8.822408	H	1	YLD124_chi.LOD1	0.098859
	7764	H	-16.540757	1.447473	7.027428	H	1	YLD124_chi.LOD1	0.103807
	7765	H	-16.305166	2.702459	9.081648	H	1	YLD124_chi.LOD1	0.161189
	7766	C	-18.987149	-2.375884	4.936214	C	1	YLD124_chi.LOD1	0.100982
	7767	C	-19.794052	-3.483740	4.808702	C	1	YLD124_chi.LOD1	-0.303623
	7768	C	-18.115709	-1.948179	3.773990	C	1	YLD124_chi.LOD1	0.096207
	7769	H	-20.421471	-3.767743	5.652246	H	1	YLD124_chi.LOD1	0.124941
	7770	C	-18.611491	-2.450645	2.397890	C	1	YLD124_chi.LOD1	0.409462
	7771	H	-18.036594	-0.854782	3.746315	H	1	YLD124_chi.LOD1	-0.020765
	7772	C	-18.919922	-3.962541	2.503550	C	1	YLD124_chi.LOD1	-0.014279
	7773	H	-17.974645	-4.504014	2.663573	H	1	YLD124_chi.LOD1	-0.02177
	7774	C	-19.856333	-4.304054	3.643018	C	1	YLD124_chi.LOD1	0.179445
	7775	C	-20.730282	-5.339880	3.754148	C	1	YLD124_chi.LOD1	-0.27725
	7776	H	-21.339536	-5.493779	4.644640	H	1	YLD124_chi.LOD1	0.132087
	7777	C	-20.891480	-6.275514	2.707303	C	1	YLD124_chi.LOD1	0.141075
	7778	C	-21.764547	-7.341711	2.781635	C	1	YLD124_chi.LOD1	-0.327608
	7779	H	-20.288887	-6.155522	1.814480	H	1	YLD124_chi.LOD1	-0.027316
	7780	C	-21.981177	-8.330648	1.797674	C	1	YLD124_chi.LOD1	0.260653
	7781	C	-22.815836	-9.434558	1.930973	C	1	YLD124_chi.LOD1	-0.287606
	7782	C	-21.357745	-8.414319	0.401714	C	1	YLD124_chi.LOD1	-0.056548
	7783	C	-22.742761	-10.232848	0.736704	C	1	YLD124_chi.LOD1	0.509074
	7784	C	-23.583046	-9.699663	3.093606	C	1	YLD124_chi.LOD1	0.396907
	7785	O	-21.868261	-9.668575	-0.130392	O	1	YLD124_chi.LOD1	-0.366332
	7786	C	-19.798019	-8.461285	0.275137	C	1	YLD124_chi.LOD1	0.253806
	7787	C	-21.920192	-7.316874	-0.671293	C	1	YLD124_chi.LOD1	0.598114
	7788	C	-23.362058	-11.408703	0.374509	C	1	YLD124_chi.LOD1	-0.43234
	7789	N	-24.170779	-9.835088	4.089979	N	1	YLD124_chi.LOD1	-0.430249
	7790	C	-24.284527	-12.080095	1.227741	C	1	YLD124_chi.LOD1	0.437474
	7791	C	-23.087009	-11.997050	-0.895813	C	1	YLD124_chi.LOD1	0.49223
	7792	N	-25.043151	-12.661683	1.893176	N	1	YLD124_chi.LOD1	-0.451871
	7793	N	-22.870425	-12.489394	-1.928636	N	1	YLD124_chi.LOD1	-0.482758
	7794	H	-22.344645	-7.463555	3.694755	H	1	YLD124_chi.LOD1	0.157364
	7795	H	-19.318373	-4.317115	1.547261	H	1	YLD124_chi.LOD1	0.040059
	7796	H	-17.093749	-2.319495	3.948387	H	1	YLD124_chi.LOD1	-0.024244
	7797	C	-18.475936	2.020566	12.522598	C	1	YLD124_chi.LOD1	0.240322
	7798	C	-16.758057	3.367847	11.568428	C	1	YLD124_chi.LOD1	0.113854
	7799	C	-17.301364	4.679011	11.667242	C	1	YLD124_chi.LOD1	0.29958
	7800	C	-19.781755	2.588694	12.561602	C	1	YLD124_chi.LOD1	0.285774
	7801	O	-20.490200	2.335110	11.443600	O	1	YLD124_chi.LOD1	-0.61175
	7802	O	-18.566500	4.714440	11.205000	O	1	YLD124_chi.LOD1	-0.599726
	7803	C	-19.782978	7.070389	10.184738	C	1	YLD124_chi.LOD1	0.275329
	7804	C	-23.412998	2.785071	11.520812	C	1	YLD124_chi.LOD1	0.358728
	7805	C	-23.331038	3.400232	12.935476	C	1	YLD124_chi.LOD1	-0.337707
	7806	H	-22.408453	3.975378	13.082899	H	1	YLD124_chi.LOD1	0.059176
	7807	H	-24.172142	4.088647	13.101346	H	1	YLD124_chi.LOD1	0.075606
	7808	H	-23.379169	2.636685	13.721631	H	1	YLD124_chi.LOD1	0.056098
	7809	C	-21.284337	7.123226	9.825174	C	1	YLD124_chi.LOD1	-0.311529
	7810	H	-21.700570	8.109439	10.075954	H	1	YLD124_chi.LOD1	0.071087
	7811	H	-21.460059	6.961620	8.754264	H	1	YLD124_chi.LOD1	0.058721
	7812	H	-21.868834	6.376566	10.377028	H	1	YLD124_chi.LOD1	0.056179
	7813	C	-24.756084	2.037943	11.370546	C	1	YLD124_chi.LOD1	-0.279876
	7814	H	-24.850300	1.566710	10.384983	H	1	YLD124_chi.LOD1	0.048405
	7815	H	-24.876354	1.253560	12.127242	H	1	YLD124_chi.LOD1	0.047411
	7816	H	-25.598019	2.735665	11.486866	H	1	YLD124_chi.LOD1	0.054899
	7817	C	-23.358709	3.923467	10.478800	C	1	YLD124_chi.LOD1	-0.273001
	7818	H	-24.181173	4.634043	10.646118	H	1	YLD124_chi.LOD1	0.0526
	7819	H	-22.423077	4.493779	10.533384	H	1	YLD124_chi.LOD1	0.034813
	7820	H	-23.463461	3.546285	9.454347	H	1	YLD124_chi.LOD1	0.061699
	7821	C	-19.614578	7.330759	11.697471	C	1	YLD124_chi.LOD1	-0.202774
	7822	H	-20.152227	6.591831	12.304532	H	1	YLD124_chi.LOD1	0.027959
	7823	H	-18.560512	7.307775	11.995694	H	1	YLD124_chi.LOD1	0.030756
	7824	H	-20.014430	8.320775	11.960339	H	1	YLD124_chi.LOD1	0.045471
	7825	C	-19.035930	8.171978	9.401732	C	1	YLD124_chi.LOD1	-0.266625
	7826	H	-19.153792	8.055696	8.317343	H	1	YLD124_chi.LOD1	0.041283
	7827	H	-19.431050	9.163101	9.667374	H	1	YLD124_chi.LOD1	0.059445
	7828	H	-17.963483	8.169743	9.625930	H	1	YLD124_chi.LOD1	0.054675
	7829	C	-17.647433	5.473505	8.585685	C	1	YLD124_chi.LOD1	-0.410828
	7830	H	-17.748583	4.794725	7.731420	H	1	YLD124_chi.LOD1	0.093855
	7831	H	-17.540744	6.491063	8.190005	H	1	YLD124_chi.LOD1	0.090546
	7832	H	-16.708726	5.227886	9.096960	H	1	YLD124_chi.LOD1	0.070213
	7833	C	-20.340370	4.243985	8.989046	C	1	YLD124_chi.LOD1	-0.460074
	7834	H	-20.986897	4.785573	8.287684	H	1	YLD124_chi.LOD1	0.099819
	7835	H	-19.882411	3.412000	8.442611	H	1	YLD124_chi.LOD1	0.10243
	7836	H	-20.992043	3.817325	9.761051	H	1	YLD124_chi.LOD1	0.086844
	7837	C	-21.926152	0.906822	9.548312	C	1	YLD124_chi.LOD1	-0.477029
	7838	H	-20.995681	1.183581	9.040571	H	1	YLD124_chi.LOD1	0.107463
	7839	H	-21.990725	-0.187411	9.544520	H	1	YLD124_chi.LOD1	0.106999
	7840	H	-22.761199	1.291600	8.951101	H	1	YLD124_chi.LOD1	0.090486
	7841	C	-22.063284	0.139924	12.439429	C	1	YLD124_chi.LOD1	-0.470103
	7842	H	-22.823323	0.330493	13.207029	H	1	YLD124_chi.LOD1	0.112461
	7843	H	-22.306397	-0.815046	11.959502	H	1	YLD124_chi.LOD1	0.098066
	7844	H	-21.106091	0.008519	12.958050	H	1	YLD124_chi.LOD1	0.083138
	7845	Si	-21.966500	1.539920	11.260400	Si	1	YLD124_chi.LOD1	0.770043
	7846	Si	-19.076200	5.347410	9.726500	Si	1	YLD124_chi.LOD1	0.73989
	7847	H	-20.342020	2.242974	13.442502	H	1	YLD124_chi.LOD1	-0.017464
	7848	H	-16.152271	3.164450	12.456043	H	1	YLD124_chi.LOD1	0.058354
	7849	H	-17.287932	4.989961	12.721650	H	1	YLD124_chi.LOD1	-0.04034
	7850	H	-16.683909	5.394428	11.103556	H	1	YLD124_chi.LOD1	-0.007901
	7851	H	-16.068762	3.361131	10.717578	H	1	YLD124_chi.LOD1	0.028132
	7852	H	-18.629756	0.938354	12.583020	H	1	YLD124_chi.LOD1	-0.011538
	7853	H	-17.917534	2.301177	13.420206	H	1	YLD124_chi.LOD1	0.020652
	7854	H	-19.644140	3.673895	12.666171	H	1	YLD124_chi.LOD1	-0.064856
	7855	C	-19.863864	-1.667469	2.040062	C	1	YLD124_chi.LOD1	-0.299384
	7856	H	-19.643263	-0.598297	1.936444	H	1	YLD124_chi.LOD1	0.066854
	7857	H	-20.225188	-2.027467	1.069338	H	1	YLD124_chi.LOD1	0.072315
	7858	H	-20.680357	-1.773028	2.761185	H	1	YLD124_chi.LOD1	0.027971
	7859	C	-17.498502	-2.223402	1.424746	C	1	YLD124_chi.LOD1	-0.427943
	7860	H	-17.242647	-1.160256	1.340424	H	1	YLD124_chi.LOD1	0.089807
	7861	H	-16.583681	-2.769525	1.685528	H	1	YLD124_chi.LOD1	0.091303
	7862	H	-17.823262	-2.565782	0.434824	H	1	YLD124_chi.LOD1	0.089757
	7863	C	-19.181331	-9.310196	1.206613	C	1	YLD124_chi.LOD1	-0.158763
	7864	C	-18.996844	-7.760440	-0.635377	C	1	YLD124_chi.LOD1	-0.147279
	7865	C	-17.796835	-9.451651	1.233616	C	1	YLD124_chi.LOD1	-0.065518
	7866	H	-19.788553	-9.866674	1.914171	H	1	YLD124_chi.LOD1	0.080042
	7867	C	-17.607470	-7.897916	-0.599596	C	1	YLD124_chi.LOD1	-0.090746
	7868	H	-19.436682	-7.110401	-1.380397	H	1	YLD124_chi.LOD1	0.09871
	7869	C	-17.003131	-8.741306	0.330700	C	1	YLD124_chi.LOD1	-0.09866
	7870	H	-17.339571	-10.116705	1.960552	H	1	YLD124_chi.LOD1	0.104949
	7871	H	-15.922236	-8.848953	0.350626	H	1	YLD124_chi.LOD1	0.102095
	7872	H	-17.000885	-7.346923	-1.312808	H	1	YLD124_chi.LOD1	0.105434
	7873	F	-21.256390	-6.156581	-0.556536	F	1	YLD124_chi.LOD1	-0.19867
	7874	F	-23.206612	-7.084018	-0.364813	F	1	YLD124_chi.LOD1	-0.154403
	7875	F	-21.868887	-7.695720	-1.968049	F	1	YLD124_chi.LOD1	-0.186491
	7876	C	-13.682919	31.109000	5.136370	C	2	YLD124_chi.LOD1	-0.150166
	7877	C	-14.671920	31.661083	5.895409	C	2	YLD124_chi.LOD1	-0.190723
	7878	H	-15.322249	31.003776	6.470506	H	2	YLD124_chi.LOD1	0.123134
	7879	H	-13.051618	31.775510	4.551069	H	2	YLD124_chi.LOD1	0.111619
	7880	N	-12.376807	25.610341	4.353252	N	2	YLD124_chi.LOD1	-0.506176
	7881	C	-12.678683	26.943236	4.576913	C	2	YLD124_chi.LOD1	0.404469
	7882	C	-13.705568	27.332968	5.478759	C	2	YLD124_chi.LOD1	-0.281203
	7883	C	-14.035798	28.662340	5.666114	C	2	YLD124_chi.LOD1	-0.112562
	7884	C	-13.367446	29.704002	4.986709	C	2	YLD124_chi.LOD1	0.131862
	7885	C	-12.331535	29.313581	4.113380	C	2	YLD124_chi.LOD1	-0.140167
	7886	C	-11.988397	27.987399	3.910992	C	2	YLD124_chi.LOD1	-0.26473
	7887	H	-14.251979	26.586815	6.041946	H	2	YLD124_chi.LOD1	0.177954
	7888	H	-14.833440	28.896542	6.364990	H	2	YLD124_chi.LOD1	0.098859
	7889	H	-11.779609	30.081350	3.575316	H	2	YLD124_chi.LOD1	0.103807
	7890	H	-11.176857	27.764573	3.229561	H	2	YLD124_chi.LOD1	0.161189
	7891	C	-14.980828	33.061755	5.993054	C	2	YLD124_chi.LOD1	0.100982
	7892	C	-16.057666	33.463814	6.750328	C	2	YLD124_chi.LOD1	-0.303623
	7893	C	-14.164026	34.095817	5.246961	C	2	YLD124_chi.LOD1	0.096207
	7894	H	-16.624966	32.705655	7.288143	H	2	YLD124_chi.LOD1	0.124941
	7895	C	-14.270880	35.523435	5.832121	C	2	YLD124_chi.LOD1	0.409462
	7896	H	-13.108952	33.797592	5.226377	H	2	YLD124_chi.LOD1	-0.020765
	7897	C	-15.764563	35.858544	6.052878	C	2	YLD124_chi.LOD1	-0.014279
	7898	H	-16.257365	35.932169	5.071005	H	2	YLD124_chi.LOD1	-0.02177
	7899	C	-16.497377	34.815834	6.869960	C	2	YLD124_chi.LOD1	0.179445
	7900	C	-17.581413	34.964771	7.677247	C	2	YLD124_chi.LOD1	-0.27725
	7901	H	-18.037433	34.123923	8.199619	H	2	YLD124_chi.LOD1	0.132087
	7902	C	-18.173522	36.232002	7.879269	C	2	YLD124_chi.LOD1	0.141075
	7903	C	-19.275510	36.425148	8.687269	C	2	YLD124_chi.LOD1	-0.327608
	7904	H	-17.749587	37.084853	7.361995	H	2	YLD124_chi.LOD1	-0.027316
	7905	C	-19.941144	37.644979	8.936362	C	2	YLD124_chi.LOD1	0.260653
	7906	C	-21.093684	37.795956	9.699187	C	2	YLD124_chi.LOD1	-0.287606
	7907	C	-19.560258	39.039186	8.430908	C	2	YLD124_chi.LOD1	-0.056548
	7908	C	-21.493885	39.177473	9.687688	C	2	YLD124_chi.LOD1	0.509074
	7909	C	-21.748067	36.719362	10.349829	C	2	YLD124_chi.LOD1	0.396907
	7910	O	-20.634406	39.889833	8.920325	O	2	YLD124_chi.LOD1	-0.366332
	7911	C	-19.451638	39.276896	6.887329	C	2	YLD124_chi.LOD1	0.253806
	7912	C	-18.240715	39.692174	9.140837	C	2	YLD124_chi.LOD1	0.598114
	7913	C	-22.551890	39.835671	10.274843	C	2	YLD124_chi.LOD1	-0.43234
	7914	N	-22.216320	35.773658	10.842691	N	2	YLD124_chi.LOD1	-0.430249
	7915	C	-23.512803	39.165634	11.085657	C	2	YLD124_chi.LOD1	0.437474
	7916	C	-22.714644	41.239560	10.079574	C	2	YLD124_chi.LOD1	0.49223
	7917	N	-24.320319	38.657966	11.754049	N	2	YLD124_chi.LOD1	-0.451871
	7918	N	-22.860816	42.384733	9.927105	N	2	YLD124_chi.LOD1	-0.482758
	7919	H	-19.705562	35.555038	9.180333	H	2	YLD124_chi.LOD1	0.157364
	7920	H	-15.847962	36.848697	6.512897	H	2	YLD124_chi.LOD1	0.040059
	7921	H	-14.493398	34.109519	4.196238	H	2	YLD124_chi.LOD1	-0.024244
	7922	C	-12.986222	24.518975	5.030280	C	2	YLD124_chi.LOD1	0.240322
	7923	C	-11.306050	25.199732	3.498999	C	2	YLD124_chi.LOD1	0.113854
	7924	C	-9.994857	25.134179	4.048138	C	2	YLD124_chi.LOD1	0.29958
	7925	C	-12.208185	23.613047	5.809703	C	2	YLD124_chi.LOD1	0.285774
	7926	O	-11.367400	22.857300	5.076010	O	2	YLD124_chi.LOD1	-0.61175
	7927	O	-9.857710	25.978700	5.089020	O	2	YLD124_chi.LOD1	-0.599726
	7928	C	-8.851335	27.148044	7.495156	C	2	YLD124_chi.LOD1	0.275329
	7929	C	-9.732462	20.528261	4.266609	C	2	YLD124_chi.LOD1	0.358728
	7930	C	-9.041596	21.442527	3.230637	C	2	YLD124_chi.LOD1	-0.337707
	7931	H	-8.878878	22.456088	3.617814	H	2	YLD124_chi.LOD1	0.059176
	7932	H	-8.056071	21.036538	2.960826	H	2	YLD124_chi.LOD1	0.075606
	7933	H	-9.620700	21.527177	2.302826	H	2	YLD124_chi.LOD1	0.056098
	7934	C	-10.301735	26.728119	7.820977	C	2	YLD124_chi.LOD1	-0.311529
	7935	H	-10.543238	26.974674	8.864837	H	2	YLD124_chi.LOD1	0.071087
	7936	H	-11.034845	27.245247	7.189333	H	2	YLD124_chi.LOD1	0.058721
	7937	H	-10.457442	25.648850	7.700089	H	2	YLD124_chi.LOD1	0.056179
	7938	C	-9.880084	19.110673	3.672210	C	2	YLD124_chi.LOD1	-0.279876
	7939	H	-10.384926	18.429584	4.367570	H	2	YLD124_chi.LOD1	0.048405
	7940	H	-10.452169	19.115330	2.736791	H	2	YLD124_chi.LOD1	0.047411
	7941	H	-8.891644	18.684001	3.448293	H	2	YLD124_chi.LOD1	0.054899
	7942	C	-8.846581	20.447686	5.528910	C	2	YLD124_chi.LOD1	-0.273001
	7943	H	-7.848403	20.064763	5.271283	H	2	YLD124_chi.LOD1	0.0526
	7944	H	-8.704518	21.427650	6.001277	H	2	YLD124_chi.LOD1	0.034813
	7945	H	-9.266543	19.769291	6.281343	H	2	YLD124_chi.LOD1	0.061699
	7946	C	-7.883308	26.400624	8.437916	C	2	YLD124_chi.LOD1	-0.202774
	7947	H	-7.969746	25.311589	8.337249	H	2	YLD124_chi.LOD1	0.027959
	7948	H	-6.840177	26.674284	8.244242	H	2	YLD124_chi.LOD1	0.030756
	7949	H	-8.104618	26.649120	9.485955	H	2	YLD124_chi.LOD1	0.045471
	7950	C	-8.700336	28.667452	7.725974	C	2	YLD124_chi.LOD1	-0.266625
	7951	H	-9.394290	29.247309	7.105085	H	2	YLD124_chi.LOD1	0.041283
	7952	H	-8.916211	28.916979	8.774851	H	2	YLD124_chi.LOD1	0.059445
	7953	H	-7.683562	29.010201	7.504372	H	2	YLD124_chi.LOD1	0.054675
	7954	C	-7.043813	25.563329	5.527286	C	2	YLD124_chi.LOD1	-0.410828
	7955	H	-6.726255	25.189524	6.507167	H	2	YLD124_chi.LOD1	0.093855
	7956	H	-7.298671	24.694763	4.907601	H	2	YLD124_chi.LOD1	0.090546
	7957	H	-6.178578	26.048555	5.059499	H	2	YLD124_chi.LOD1	0.070213
	7958	C	-8.097794	28.219414	4.674745	C	2	YLD124_chi.LOD1	-0.460074
	7959	H	-7.626541	27.964138	3.717677	H	2	YLD124_chi.LOD1	0.099819
	7960	H	-9.008527	28.787387	4.454542	H	2	YLD124_chi.LOD1	0.10243
	7961	H	-7.407541	28.887937	5.203267	H	2	YLD124_chi.LOD1	0.086844
	7962	C	-12.153228	20.445100	6.201818	C	2	YLD124_chi.LOD1	-0.477029
	7963	H	-12.621614	19.479299	5.982690	H	2	YLD124_chi.LOD1	0.107463
	7964	H	-11.352139	20.265578	6.928150	H	2	YLD124_chi.LOD1	0.106999
	7965	H	-12.904812	21.080152	6.685398	H	2	YLD124_chi.LOD1	0.090486
	7966	C	-12.652309	20.992675	3.300675	C	2	YLD124_chi.LOD1	-0.470103
	7967	H	-12.330114	20.169732	2.650951	H	2	YLD124_chi.LOD1	0.112461
	7968	H	-13.676287	20.778026	3.627473	H	2	YLD124_chi.LOD1	0.098066
	7969	H	-12.691674	21.896836	2.681484	H	2	YLD124_chi.LOD1	0.083138
	7970	Si	-11.479900	21.218800	4.691270	Si	2	YLD124_chi.LOD1	0.770043
	7971	Si	-8.457460	26.721100	5.667350	Si	2	YLD124_chi.LOD1	0.73989
	7972	H	-11.631683	24.248209	6.497904	H	2	YLD124_chi.LOD1	-0.017464
	7973	H	-11.568596	24.229141	3.068615	H	2	YLD124_chi.LOD1	0.058354
	7974	H	-9.815629	24.103667	4.386618	H	2	YLD124_chi.LOD1	-0.04034
	7975	H	-9.238693	25.367381	3.283515	H	2	YLD124_chi.LOD1	-0.007901
	7976	H	-11.265391	25.905896	2.663059	H	2	YLD124_chi.LOD1	0.028132
	7977	H	-13.797231	24.936960	5.635298	H	2	YLD124_chi.LOD1	-0.011538
	7978	H	-13.461775	23.884738	4.276723	H	2	YLD124_chi.LOD1	0.020652
	7979	H	-12.843755	22.958843	6.422565	H	2	YLD124_chi.LOD1	-0.064856
	7980	C	-13.512111	35.544725	7.148790	C	2	YLD124_chi.LOD1	-0.299384
	7981	H	-12.447058	35.335394	6.992670	H	2	YLD124_chi.LOD1	0.066854
	7982	H	-13.593631	36.552698	7.572823	H	2	YLD124_chi.LOD1	0.072315
	7983	H	-13.887238	34.836680	7.894292	H	2	YLD124_chi.LOD1	0.027971
	7984	C	-13.683135	36.454082	4.819319	C	2	YLD124_chi.LOD1	-0.427943
	7985	H	-12.626927	36.230546	4.626165	H	2	YLD124_chi.LOD1	0.089807
	7986	H	-14.212523	36.431262	3.858912	H	2	YLD124_chi.LOD1	0.091303
	7987	H	-13.739469	37.477419	5.209508	H	2	YLD124_chi.LOD1	0.089757
	7988	C	-20.490462	38.687756	6.150877	C	2	YLD124_chi.LOD1	-0.158763
	7989	C	-18.454697	39.984516	6.203602	C	2	YLD124_chi.LOD1	-0.147279
	7990	C	-20.530321	38.796291	4.763722	C	2	YLD124_chi.LOD1	-0.065518
	7991	H	-21.275326	38.142457	6.666301	H	2	YLD124_chi.LOD1	0.080042
	7992	C	-18.493011	40.083825	4.811047	C	2	YLD124_chi.LOD1	-0.090746
	7993	H	-17.647407	40.467988	6.738019	H	2	YLD124_chi.LOD1	0.09871
	7994	C	-19.527145	39.493325	4.087265	C	2	YLD124_chi.LOD1	-0.09866
	7995	H	-21.345246	38.335701	4.212743	H	2	YLD124_chi.LOD1	0.104949
	7996	H	-19.555265	39.578318	3.004536	H	2	YLD124_chi.LOD1	0.102095
	7997	H	-17.711738	40.636114	4.296460	H	2	YLD124_chi.LOD1	0.105434
	7998	F	-18.435365	40.953058	9.556007	F	2	YLD124_chi.LOD1	-0.19867
	7999	F	-17.155201	39.684912	8.350499	F	2	YLD124_chi.LOD1	-0.154403
	8000	F	-17.962695	38.937618	10.227613	F	2	YLD124_chi.LOD1	-0.186491
	8001	C	-13.839857	16.406200	-9.893148	C	3	YLD124_chi.LOD1	-0.150166
	8002	C	-13.443698	17.708113	-9.808662	C	3	YLD124_chi.LOD1	-0.190723
	8003	H	-13.331593	18.160725	-8.824643	H	3	YLD124_chi.LOD1	0.123134
	8004	H	-13.966745	15.970871	-10.882967	H	3	YLD124_chi.LOD1	0.111619
	8005	N	-15.177782	12.761499	-5.712171	N	3	YLD124_chi.LOD1	-0.506176
	8006	C	-14.817406	13.642077	-6.718389	C	3	YLD124_chi.LOD1	0.404469
	8007	C	-14.343596	14.950237	-6.428675	C	3	YLD124_chi.LOD1	-0.281203
	8008	C	-14.027701	15.843280	-7.435683	C	3	YLD124_chi.LOD1	-0.112562
	8009	C	-14.144109	15.505239	-8.801524	C	3	YLD124_chi.LOD1	0.131862
	8010	C	-14.589030	14.197262	-9.083452	C	3	YLD124_chi.LOD1	-0.140167
	8011	C	-14.912463	13.290079	-8.088528	C	3	YLD124_chi.LOD1	-0.26473
	8012	H	-14.219196	15.272813	-5.402537	H	3	YLD124_chi.LOD1	0.177954
	8013	H	-13.675640	16.830357	-7.150649	H	3	YLD124_chi.LOD1	0.098859
	8014	H	-14.684253	13.886212	-10.121616	H	3	YLD124_chi.LOD1	0.103807
	8015	H	-15.240990	12.300814	-8.381825	H	3	YLD124_chi.LOD1	0.161189
	8016	C	-13.184075	18.586571	-10.916700	C	3	YLD124_chi.LOD1	0.100982
	8017	C	-12.856529	19.901107	-10.672969	C	3	YLD124_chi.LOD1	-0.303623
	8018	C	-13.301909	18.098158	-12.345221	C	3	YLD124_chi.LOD1	0.096207
	8019	H	-12.765666	20.229340	-9.638616	H	3	YLD124_chi.LOD1	0.124941
	8020	C	-12.521063	18.954723	-13.369183	C	3	YLD124_chi.LOD1	0.409462
	8021	H	-12.959789	17.058707	-12.416198	H	3	YLD124_chi.LOD1	-0.020765
	8022	C	-12.853116	20.445386	-13.124668	C	3	YLD124_chi.LOD1	-0.014279
	8023	H	-13.910266	20.616791	-13.380406	H	3	YLD124_chi.LOD1	-0.02177
	8024	C	-12.640138	20.878349	-11.689723	C	3	YLD124_chi.LOD1	0.179445
	8025	C	-12.324566	22.108078	-11.202537	C	3	YLD124_chi.LOD1	-0.27725
	8026	H	-12.220297	22.301476	-10.135027	H	3	YLD124_chi.LOD1	0.132087
	8027	C	-12.113908	23.205112	-12.068227	C	3	YLD124_chi.LOD1	0.141075
	8028	C	-11.795508	24.468877	-11.614284	C	3	YLD124_chi.LOD1	-0.327608
	8029	H	-12.223976	23.045840	-13.134607	H	3	YLD124_chi.LOD1	-0.027316
	8030	C	-11.582469	25.623115	-12.398794	C	3	YLD124_chi.LOD1	0.260653
	8031	C	-11.333549	26.899792	-11.907698	C	3	YLD124_chi.LOD1	-0.287606
	8032	C	-11.584635	25.730085	-13.926185	C	3	YLD124_chi.LOD1	-0.056548
	8033	C	-11.211888	27.817369	-13.008669	C	3	YLD124_chi.LOD1	0.509074
	8034	C	-11.244561	27.202913	-10.525379	C	3	YLD124_chi.LOD1	0.396907
	8035	O	-11.399672	27.151892	-14.173523	O	3	YLD124_chi.LOD1	-0.366332
	8036	C	-12.865965	25.289198	-14.710113	C	3	YLD124_chi.LOD1	0.253806
	8037	C	-10.283831	25.069323	-14.662825	C	3	YLD124_chi.LOD1	0.598114
	8038	C	-10.974114	29.173285	-13.056709	C	3	YLD124_chi.LOD1	-0.43234
	8039	N	-11.193704	27.354596	-9.371718	N	3	YLD124_chi.LOD1	-0.430249
	8040	C	-10.779378	29.956378	-11.882587	C	3	YLD124_chi.LOD1	0.437474
	8041	C	-10.916122	29.842440	-14.315434	C	3	YLD124_chi.LOD1	0.49223
	8042	N	-10.615564	30.633810	-10.949415	N	3	YLD124_chi.LOD1	-0.451871
	8043	N	-10.868129	30.401808	-15.335649	N	3	YLD124_chi.LOD1	-0.482758
	8044	H	-11.713124	24.619222	-10.539223	H	3	YLD124_chi.LOD1	0.157364
	8045	H	-12.267006	21.063141	-13.813020	H	3	YLD124_chi.LOD1	0.040059
	8046	H	-14.367480	18.083842	-12.622795	H	3	YLD124_chi.LOD1	-0.024244
	8047	C	-15.024167	13.071010	-4.335052	C	3	YLD124_chi.LOD1	0.240322
	8048	C	-15.599838	11.417214	-5.959482	C	3	YLD124_chi.LOD1	0.113854
	8049	C	-14.653850	10.359564	-5.838443	C	3	YLD124_chi.LOD1	0.29958
	8050	C	-13.743394	13.007848	-3.706470	C	3	YLD124_chi.LOD1	0.285774
	8051	O	-13.004600	14.129800	-3.813950	O	3	YLD124_chi.LOD1	-0.61175
	8052	O	-13.456800	10.693900	-6.359000	O	3	YLD124_chi.LOD1	-0.599726
	8053	C	-11.430612	8.763375	-5.848730	C	3	YLD124_chi.LOD1	0.275329
	8054	C	-10.999303	15.819773	-2.403045	C	3	YLD124_chi.LOD1	0.358728
	8055	C	-9.873910	15.405910	-1.429072	C	3	YLD124_chi.LOD1	-0.337707
	8056	H	-8.925063	15.222383	-1.948395	H	3	YLD124_chi.LOD1	0.059176
	8057	H	-9.692430	16.203861	-0.694754	H	3	YLD124_chi.LOD1	0.075606
	8058	H	-10.127884	14.499998	-0.864998	H	3	YLD124_chi.LOD1	0.056098
	8059	C	-11.633334	7.244803	-6.046208	C	3	YLD124_chi.LOD1	-0.311529
	8060	H	-11.100384	6.685484	-5.263978	H	3	YLD124_chi.LOD1	0.071087
	8061	H	-12.690227	6.956379	-5.985931	H	3	YLD124_chi.LOD1	0.058721
	8062	H	-11.245801	6.897443	-7.012045	H	3	YLD124_chi.LOD1	0.056179
	8063	C	-12.284357	16.110824	-1.597697	C	3	YLD124_chi.LOD1	-0.279876
	8064	H	-13.118686	16.390488	-2.251880	H	3	YLD124_chi.LOD1	0.048405
	8065	H	-12.602198	15.244901	-1.004851	H	3	YLD124_chi.LOD1	0.047411
	8066	H	-12.118032	16.942437	-0.897726	H	3	YLD124_chi.LOD1	0.054899
	8067	C	-10.572025	17.108291	-3.139140	C	3	YLD124_chi.LOD1	-0.273001
	8068	H	-10.364099	17.910281	-2.415996	H	3	YLD124_chi.LOD1	0.0526
	8069	H	-9.661239	16.965637	-3.733918	H	3	YLD124_chi.LOD1	0.034813
	8070	H	-11.357652	17.476382	-3.809993	H	3	YLD124_chi.LOD1	0.061699
	8071	C	-9.922474	9.087079	-5.921164	C	3	YLD124_chi.LOD1	-0.202774
	8072	H	-9.483870	8.791411	-6.882314	H	3	YLD124_chi.LOD1	0.027959
	8073	H	-9.732449	10.156876	-5.779941	H	3	YLD124_chi.LOD1	0.030756
	8074	H	-9.378323	8.544621	-5.134556	H	3	YLD124_chi.LOD1	0.045471
	8075	C	-11.962436	9.168191	-4.456622	C	3	YLD124_chi.LOD1	-0.266625
	8076	H	-13.025523	8.925375	-4.337478	H	3	YLD124_chi.LOD1	0.041283
	8077	H	-11.415736	8.630503	-3.668573	H	3	YLD124_chi.LOD1	0.059445
	8078	H	-11.839819	10.241563	-4.274272	H	3	YLD124_chi.LOD1	0.054675
	8079	C	-13.310954	8.608979	-8.337867	C	3	YLD124_chi.LOD1	-0.410828
	8080	H	-13.655517	7.705416	-7.822511	H	3	YLD124_chi.LOD1	0.093855
	8081	H	-14.193507	9.110831	-8.753336	H	3	YLD124_chi.LOD1	0.090546
	8082	H	-12.692218	8.292950	-9.186508	H	3	YLD124_chi.LOD1	0.070213
	8083	C	-11.259836	10.772969	-8.211800	C	3	YLD124_chi.LOD1	-0.460074
	8084	H	-11.051067	11.725167	-7.708848	H	3	YLD124_chi.LOD1	0.099819
	8085	H	-10.299537	10.279937	-8.399579	H	3	YLD124_chi.LOD1	0.10243
	8086	H	-11.705878	11.015393	-9.183903	H	3	YLD124_chi.LOD1	0.086844
	8087	C	-10.695548	12.802313	-3.036321	C	3	YLD124_chi.LOD1	-0.477029
	8088	H	-10.829368	12.003213	-3.773685	H	3	YLD124_chi.LOD1	0.107463
	8089	H	-9.622153	12.883500	-2.829533	H	3	YLD124_chi.LOD1	0.106999
	8090	H	-11.190365	12.489422	-2.109350	H	3	YLD124_chi.LOD1	0.090486
	8091	C	-10.621006	14.777248	-5.289475	C	3	YLD124_chi.LOD1	-0.470103
	8092	H	-10.678191	13.905744	-5.953100	H	3	YLD124_chi.LOD1	0.112461
	8093	H	-11.113503	15.615053	-5.796359	H	3	YLD124_chi.LOD1	0.098066
	8094	H	-9.560512	15.037037	-5.187912	H	3	YLD124_chi.LOD1	0.083138
	8095	Si	-11.346600	14.393700	-3.650610	Si	3	YLD124_chi.LOD1	0.770043
	8096	Si	-12.379300	9.718000	-7.215100	Si	3	YLD124_chi.LOD1	0.73989
	8097	H	-13.843569	12.729415	-2.647299	H	3	YLD124_chi.LOD1	-0.017464
	8098	H	-16.465161	11.214322	-5.322097	H	3	YLD124_chi.LOD1	0.058354
	8099	H	-14.540398	10.147775	-4.765633	H	3	YLD124_chi.LOD1	-0.04034
	8100	H	-15.020330	9.440557	-6.320037	H	3	YLD124_chi.LOD1	-0.007901
	8101	H	-15.962415	11.377470	-6.991992	H	3	YLD124_chi.LOD1	0.028132
	8102	H	-15.325108	14.114975	-4.200641	H	3	YLD124_chi.LOD1	-0.011538
	8103	H	-15.739160	12.470367	-3.765607	H	3	YLD124_chi.LOD1	0.020652
	8104	H	-13.226105	12.182187	-4.214634	H	3	YLD124_chi.LOD1	-0.064856
	8105	C	-11.038711	18.690554	-13.162715	C	3	YLD124_chi.LOD1	-0.299384
	8106	H	-10.794526	17.640376	-13.362790	H	3	YLD124_chi.LOD1	0.066854
	8107	H	-10.480137	19.303715	-13.879994	H	3	YLD124_chi.LOD1	0.072315
	8108	H	-10.675017	18.934146	-12.159614	H	3	YLD124_chi.LOD1	0.027971
	8109	C	-12.990418	18.543470	-14.728543	C	3	YLD124_chi.LOD1	-0.427943
	8110	H	-12.785792	17.484281	-14.926277	H	3	YLD124_chi.LOD1	0.089807
	8111	H	-14.063557	18.712396	-14.880169	H	3	YLD124_chi.LOD1	0.091303
	8112	H	-12.448634	19.131547	-15.479060	H	3	YLD124_chi.LOD1	0.089757
	8113	C	-14.064036	25.725728	-14.124733	C	3	YLD124_chi.LOD1	-0.158763
	8114	C	-12.925041	24.527481	-15.884164	C	3	YLD124_chi.LOD1	-0.147279
	8115	C	-15.293052	25.404199	-14.693686	C	3	YLD124_chi.LOD1	-0.065518
	8116	H	-14.035395	26.323714	-13.218854	H	3	YLD124_chi.LOD1	0.080042
	8117	C	-14.160201	24.199211	-16.447331	C	3	YLD124_chi.LOD1	-0.090746
	8118	H	-12.022331	24.187978	-16.374997	H	3	YLD124_chi.LOD1	0.09871
	8119	C	-15.345388	24.634797	-15.857771	C	3	YLD124_chi.LOD1	-0.09866
	8120	H	-16.208738	25.755032	-14.226504	H	3	YLD124_chi.LOD1	0.104949
	8121	H	-16.303424	24.381368	-16.303034	H	3	YLD124_chi.LOD1	0.102095
	8122	H	-14.188059	23.607476	-17.357981	H	3	YLD124_chi.LOD1	0.105434
	8123	F	-9.195338	25.742958	-14.260979	F	3	YLD124_chi.LOD1	-0.19867
	8124	F	-10.298998	25.080407	-16.005463	F	3	YLD124_chi.LOD1	-0.154403
	8125	F	-10.145424	23.784950	-14.264124	F	3	YLD124_chi.LOD1	-0.186491
	8126	C	0.071398	13.947706	-12.729616	C	1	YLD124.LOD1	-0.158041
	8127	C	-0.236707	13.786862	-11.411181	C	1	YLD124.LOD1	-0.174247
	8128	H	0.247559	12.986895	-10.853294	H	1	YLD124.LOD1	0.11023
	8129	H	-0.428731	14.741370	-13.282185	H	1	YLD124.LOD1	0.116594
	8130	N	3.711722	10.975321	-15.966901	N	1	YLD124.LOD1	-0.477879
	8131	C	2.842937	11.700846	-15.169172	C	1	YLD124.LOD1	0.383639
	8132	C	2.658199	11.388861	-13.794974	C	1	YLD124.LOD1	-0.278193
	8133	C	1.769448	12.096211	-13.006988	C	1	YLD124.LOD1	-0.102205
	8134	C	1.005452	13.169113	-13.515463	C	1	YLD124.LOD1	0.126725
	8135	C	1.199646	13.481252	-14.876784	C	1	YLD124.LOD1	-0.148338
	8136	C	2.085059	12.784036	-15.681577	C	1	YLD124.LOD1	-0.248652
	8137	H	3.217740	10.583360	-13.336101	H	1	YLD124.LOD1	0.176041
	8138	H	1.670576	11.807677	-11.964680	H	1	YLD124.LOD1	0.098595
	8139	H	0.637306	14.303844	-15.313501	H	1	YLD124.LOD1	0.105176
	8140	H	2.189166	13.088656	-16.715493	H	1	YLD124.LOD1	0.157607
	8141	C	-1.172835	14.573664	-10.655493	C	1	YLD124.LOD1	0.13089
	8142	C	-1.403416	14.260775	-9.334930	C	1	YLD124.LOD1	-0.298955
	8143	C	-1.923343	15.724587	-11.292294	C	1	YLD124.LOD1	0.000678
	8144	H	-0.845750	13.436421	-8.892953	H	1	YLD124.LOD1	0.128536
	8145	C	-2.441378	16.773346	-10.280210	C	1	YLD124.LOD1	0.312314
	8146	H	-1.286991	16.226788	-12.030615	H	1	YLD124.LOD1	0.009572
	8147	C	-3.166655	16.036496	-9.129901	C	1	YLD124.LOD1	0.132423
	8148	H	-4.080140	15.571125	-9.531649	H	1	YLD124.LOD1	-0.011706
	8149	C	-2.327365	14.949164	-8.493530	C	1	YLD124.LOD1	0.094029
	8150	C	-2.349676	14.484911	-7.214622	C	1	YLD124.LOD1	-0.194272
	8151	H	-1.708867	13.668483	-6.881950	H	1	YLD124.LOD1	0.118653
	8152	C	-3.209415	15.050510	-6.246188	C	1	YLD124.LOD1	0.029031
	8153	C	-3.239306	14.632946	-4.931197	C	1	YLD124.LOD1	-0.298661
	8154	H	-3.866448	15.856011	-6.552678	H	1	YLD124.LOD1	0.063317
	8155	C	-4.032559	15.166154	-3.892230	C	1	YLD124.LOD1	0.24754
	8156	C	-3.977585	14.787612	-2.555466	C	1	YLD124.LOD1	-0.281071
	8157	C	-5.091530	16.267428	-3.995455	C	1	YLD124.LOD1	-0.098074
	8158	C	-4.891982	15.596312	-1.794769	C	1	YLD124.LOD1	0.526995
	8159	C	-3.115697	13.774858	-2.063577	C	1	YLD124.LOD1	0.389724
	8160	O	-5.496979	16.487866	-2.616819	O	1	YLD124.LOD1	-0.351072
	8161	C	-6.483712	15.814016	-4.707301	C	1	YLD124.LOD1	0.617997
	8162	C	-4.675146	17.655723	-4.582174	C	1	YLD124.LOD1	0.253109
	8163	C	-5.205951	15.620223	-0.453905	C	1	YLD124.LOD1	-0.451385
	8164	N	-2.371269	12.934460	-1.753582	N	1	YLD124.LOD1	-0.428829
	8165	F	-6.855539	14.656982	-4.139153	F	1	YLD124.LOD1	-0.200469
	8166	F	-7.505566	16.676699	-4.589692	F	1	YLD124.LOD1	-0.158364
	8167	F	-6.289511	15.582676	-6.024816	F	1	YLD124.LOD1	-0.193377
	8168	C	-3.407887	17.633870	-5.183538	C	1	YLD124.LOD1	-0.158716
	8169	C	-5.367974	18.870599	-4.506318	C	1	YLD124.LOD1	-0.162688
	8170	C	-4.608976	14.731222	0.485812	C	1	YLD124.LOD1	0.447489
	8171	C	-6.160429	16.559664	0.038018	C	1	YLD124.LOD1	0.491336
	8172	H	-2.855077	16.701068	-5.242666	H	1	YLD124.LOD1	0.085247
	8173	C	-2.847127	18.796300	-5.704655	C	1	YLD124.LOD1	-0.074329
	8174	C	-4.806250	20.033627	-5.038883	C	1	YLD124.LOD1	-0.055824
	8175	H	-6.339435	18.930739	-4.033187	H	1	YLD124.LOD1	0.099228
	8176	N	-4.145579	14.024404	1.287196	N	1	YLD124.LOD1	-0.454587
	8177	N	-6.935797	17.322622	0.453622	N	1	YLD124.LOD1	-0.481156
	8178	H	-1.863191	18.758760	-6.163160	H	1	YLD124.LOD1	0.111202
	8179	C	-3.548305	20.002265	-5.637890	C	1	YLD124.LOD1	-0.106678
	8180	H	-5.356049	20.968171	-4.970695	H	1	YLD124.LOD1	0.095951
	8181	H	-3.113323	20.910741	-6.045084	H	1	YLD124.LOD1	0.103827
	8182	H	-2.566985	13.829750	-4.634512	H	1	YLD124.LOD1	0.159396
	8183	H	-3.496993	16.767927	-8.385158	H	1	YLD124.LOD1	-0.052081
	8184	H	-2.775796	15.316286	-11.857176	H	1	YLD124.LOD1	-0.003289
	8185	C	4.546322	9.953188	-15.446925	C	1	YLD124.LOD1	0.198954
	8186	C	3.954086	11.307552	-17.334471	C	1	YLD124.LOD1	0.115128
	8187	C	4.901987	12.301915	-17.743220	C	1	YLD124.LOD1	0.306486
	8188	C	5.756321	10.347735	-14.808376	C	1	YLD124.LOD1	0.28632
	8189	O	5.701250	11.635800	-14.417900	O	1	YLD124.LOD1	-0.606883
	8190	O	4.403320	13.386800	-18.367100	O	1	YLD124.LOD1	-0.600198
	8191	C	4.155330	15.217936	-20.513808	C	1	YLD124.LOD1	0.267162
	8192	C	6.199841	14.486401	-13.723378	C	1	YLD124.LOD1	0.369124
	8193	C	7.305886	15.447009	-13.232287	C	1	YLD124.LOD1	-0.324271
	8194	H	8.133674	15.525671	-13.948094	H	1	YLD124.LOD1	0.053925
	8195	H	6.897872	16.458946	-13.096579	H	1	YLD124.LOD1	0.070181
	8196	H	7.725330	15.135861	-12.267882	H	1	YLD124.LOD1	0.052098
	8197	C	3.706642	15.390042	-21.981970	C	1	YLD124.LOD1	-0.316887
	8198	H	3.872232	16.426188	-22.310088	H	1	YLD124.LOD1	0.07213
	8199	H	4.268027	14.740744	-22.665356	H	1	YLD124.LOD1	0.059956
	8200	H	2.639228	15.175038	-22.116355	H	1	YLD124.LOD1	0.057948
	8201	C	5.058984	14.456578	-12.683364	C	1	YLD124.LOD1	-0.260833
	8202	H	4.252223	13.778090	-12.984793	H	1	YLD124.LOD1	0.041714
	8203	H	5.413020	14.133732	-11.697126	H	1	YLD124.LOD1	0.041636
	8204	H	4.623113	15.458842	-12.561889	H	1	YLD124.LOD1	0.048242
	8205	C	5.640944	15.016179	-15.061768	C	1	YLD124.LOD1	-0.256632
	8206	H	5.250886	16.036685	-14.936013	H	1	YLD124.LOD1	0.046696
	8207	H	6.407653	15.057434	-15.845215	H	1	YLD124.LOD1	0.030906
	8208	H	4.813541	14.399517	-15.433144	H	1	YLD124.LOD1	0.051975
	8209	C	3.344179	16.181931	-19.620789	C	1	YLD124.LOD1	-0.203727
	8210	H	2.265310	15.996848	-19.693094	H	1	YLD124.LOD1	0.027457
	8211	H	3.630116	16.093631	-18.566803	H	1	YLD124.LOD1	0.031775
	8212	H	3.517269	17.223200	-19.928562	H	1	YLD124.LOD1	0.046776
	8213	C	5.654614	15.569649	-20.398661	C	1	YLD124.LOD1	-0.249027
	8214	H	6.274779	14.934748	-21.043484	H	1	YLD124.LOD1	0.037596
	8215	H	5.826591	16.611390	-20.705607	H	1	YLD124.LOD1	0.055765
	8216	H	6.017390	15.460333	-19.370625	H	1	YLD124.LOD1	0.04836
	8217	C	4.826177	12.205948	-20.958424	C	1	YLD124.LOD1	-0.409962
	8218	H	5.896288	12.441624	-20.949449	H	1	YLD124.LOD1	0.090944
	8219	H	4.707696	11.183078	-20.580368	H	1	YLD124.LOD1	0.090896
	8220	H	4.494636	12.202256	-22.003944	H	1	YLD124.LOD1	0.069902
	8221	C	2.088736	12.936199	-20.020348	C	1	YLD124.LOD1	-0.458602
	8222	H	1.932042	11.915869	-19.649420	H	1	YLD124.LOD1	0.097974
	8223	H	1.472652	13.608897	-19.413225	H	1	YLD124.LOD1	0.103309
	8224	H	1.704221	12.967783	-21.047091	H	1	YLD124.LOD1	0.085827
	8225	C	7.470013	12.023314	-12.322573	C	1	YLD124.LOD1	-0.493974
	8226	H	6.638434	11.916452	-11.617405	H	1	YLD124.LOD1	0.11158
	8227	H	7.908191	11.029279	-12.468627	H	1	YLD124.LOD1	0.113577
	8228	H	8.230682	12.656687	-11.851596	H	1	YLD124.LOD1	0.09477
	8229	C	8.283121	12.689749	-15.131937	C	1	YLD124.LOD1	-0.483575
	8230	H	8.673459	11.672619	-15.258917	H	1	YLD124.LOD1	0.116965
	8231	H	7.989385	13.059144	-16.121007	H	1	YLD124.LOD1	0.100121
	8232	H	9.114384	13.314804	-14.784418	H	1	YLD124.LOD1	0.088084
	8233	Si	6.907400	12.704300	-13.919200	Si	1	YLD124.LOD1	0.763339
	8234	Si	3.859790	13.404500	-19.964400	Si	1	YLD124.LOD1	0.748472
	8235	H	5.966002	9.706697	-13.939512	H	1	YLD124.LOD1	-0.009815
	8236	H	4.183953	10.383459	-17.872423	H	1	YLD124.LOD1	0.057511
	8237	H	5.390079	12.605407	-16.805903	H	1	YLD124.LOD1	-0.045737
	8238	H	5.668965	11.834457	-18.378870	H	1	YLD124.LOD1	-0.011652
	8239	H	3.013299	11.681122	-17.752202	H	1	YLD124.LOD1	0.023801
	8240	H	3.959579	9.395572	-14.709260	H	1	YLD124.LOD1	-0.001966
	8241	H	4.771196	9.250713	-16.254146	H	1	YLD124.LOD1	0.031172
	8242	H	6.581285	10.213359	-15.521628	H	1	YLD124.LOD1	-0.066029
	8243	C	-1.239084	17.547703	-9.751335	C	1	YLD124.LOD1	-0.185058
	8244	H	-0.739019	18.095802	-10.558868	H	1	YLD124.LOD1	0.04722
	8245	H	-1.600228	18.283815	-9.023193	H	1	YLD124.LOD1	0.027573
	8246	H	-0.489131	16.924977	-9.253785	H	1	YLD124.LOD1	0.00699
	8247	C	-3.403652	17.650548	-11.011698	C	1	YLD124.LOD1	-0.347891
	8248	H	-2.923774	18.174046	-11.847544	H	1	YLD124.LOD1	0.075067
	8249	H	-4.263866	17.098918	-11.410303	H	1	YLD124.LOD1	0.071859
	8250	H	-3.783953	18.410623	-10.318600	H	1	YLD124.LOD1	0.077505
	8251	C	-17.027685	17.949588	16.078639	C	1	YLD124_chi.LOD1	-0.150166
	8252	C	-15.813545	17.341026	15.957912	C	1	YLD124_chi.LOD1	-0.190723
	8253	H	-15.212707	17.184425	16.852444	H	1	YLD124_chi.LOD1	0.123134
	8254	H	-17.610438	18.117637	15.174476	H	1	YLD124_chi.LOD1	0.111619
	8255	N	-19.581766	20.016270	20.743396	N	1	YLD124_chi.LOD1	-0.506176
	8256	C	-18.969958	19.480503	19.622501	C	1	YLD124_chi.LOD1	0.404469
	8257	C	-17.724752	18.800786	19.707099	C	1	YLD124_chi.LOD1	-0.281203
	8258	C	-17.093824	18.306690	18.580520	C	1	YLD124_chi.LOD1	-0.112562
	8259	C	-17.652693	18.436193	17.290466	C	1	YLD124_chi.LOD1	0.131862
	8260	C	-18.900960	19.087666	17.215255	C	1	YLD124_chi.LOD1	-0.140167
	8261	C	-19.546594	19.591209	18.331975	C	1	YLD124_chi.LOD1	-0.26473
	8262	H	-17.244302	18.655456	20.666546	H	1	YLD124_chi.LOD1	0.177954
	8263	H	-16.141218	17.801248	18.709296	H	1	YLD124_chi.LOD1	0.098859
	8264	H	-19.377138	19.201925	16.243760	H	1	YLD124_chi.LOD1	0.103807
	8265	H	-20.506630	20.073584	18.196904	H	1	YLD124_chi.LOD1	0.161189
	8266	C	-15.206162	16.901688	14.731165	C	1	YLD124_chi.LOD1	0.100982
	8267	C	-13.939585	16.363527	14.760503	C	1	YLD124_chi.LOD1	-0.303623
	8268	C	-15.922097	17.056167	13.405768	C	1	YLD124_chi.LOD1	0.096207
	8269	H	-13.446736	16.250528	15.724978	H	1	YLD124_chi.LOD1	0.124941
	8270	C	-15.404659	16.109759	12.297394	C	1	YLD124_chi.LOD1	0.409462
	8271	H	-16.998337	16.893397	13.539021	H	1	YLD124_chi.LOD1	-0.020765
	8272	C	-13.860716	16.191432	12.256259	C	1	YLD124_chi.LOD1	-0.014279
	8273	H	-13.570710	17.195666	11.910196	H	1	YLD124_chi.LOD1	-0.02177
	8274	C	-13.212731	15.952849	13.603507	C	1	YLD124_chi.LOD1	0.179445
	8275	C	-11.982040	15.448408	13.886178	C	1	YLD124_chi.LOD1	-0.27725
	8276	H	-11.616054	15.346124	14.907669	H	1	YLD124_chi.LOD1	0.132087
	8277	C	-11.110456	15.027743	12.856293	C	1	YLD124_chi.LOD1	0.141075
	8278	C	-9.853194	14.513751	13.100529	C	1	YLD124_chi.LOD1	-0.327608
	8279	H	-11.442204	15.129981	11.829580	H	1	YLD124_chi.LOD1	-0.027316
	8280	C	-8.911670	14.083558	12.140543	C	1	YLD124_chi.LOD1	0.260653
	8281	C	-7.623881	13.636969	12.414770	C	1	YLD124_chi.LOD1	-0.287606
	8282	C	-9.086944	14.019965	10.620804	C	1	YLD124_chi.LOD1	-0.056548
	8283	C	-6.955010	13.327098	11.179668	C	1	YLD124_chi.LOD1	0.509074
	8284	C	-7.091442	13.540918	13.725453	C	1	YLD124_chi.LOD1	0.396907
	8285	O	-7.783150	13.588741	10.140084	O	1	YLD124_chi.LOD1	-0.366332
	8286	C	-9.451178	15.332591	9.849220	C	1	YLD124_chi.LOD1	0.253806
	8287	C	-10.071455	12.827883	10.090317	C	1	YLD124_chi.LOD1	0.598114
	8288	C	-5.687187	12.861248	10.909560	C	1	YLD124_chi.LOD1	-0.43234
	8289	N	-6.741537	13.501009	14.835634	N	1	YLD124_chi.LOD1	-0.430249
	8290	C	-4.744409	12.573081	11.938078	C	1	YLD124_chi.LOD1	0.437474
	8291	C	-5.277818	12.651343	9.559049	C	1	YLD124_chi.LOD1	0.49223
	8292	N	-3.943183	12.325804	12.746441	N	1	YLD124_chi.LOD1	-0.451871
	8293	N	-4.929683	12.477351	8.461523	N	1	YLD124_chi.LOD1	-0.482758
	8294	H	-9.524050	14.440566	14.135640	H	1	YLD124_chi.LOD1	0.157364
	8295	H	-13.482074	15.487825	11.507565	H	1	YLD124_chi.LOD1	0.040059
	8296	H	-15.814840	18.099537	13.070258	H	1	YLD124_chi.LOD1	-0.024244
	8297	C	-19.069451	19.864564	22.059474	C	1	YLD124_chi.LOD1	0.240322
	8298	C	-20.863246	20.646608	20.676500	C	1	YLD124_chi.LOD1	0.113854
	8299	C	-22.009137	19.806918	20.603285	C	1	YLD124_chi.LOD1	0.29958
	8300	C	-19.461173	18.747734	22.854882	C	1	YLD124_chi.LOD1	0.285774
	8301	O	-19.030600	17.566000	22.370800	O	1	YLD124_chi.LOD1	-0.61175
	8302	O	-21.654300	18.528100	20.370300	O	1	YLD124_chi.LOD1	-0.599726
	8303	C	-22.753557	17.159044	18.120767	C	1	YLD124_chi.LOD1	0.275329
	8304	C	-18.338474	15.223565	24.075136	C	1	YLD124_chi.LOD1	0.358728
	8305	C	-18.120630	13.845252	23.412405	C	1	YLD124_chi.LOD1	-0.337707
	8306	H	-17.059507	13.641651	23.221996	H	1	YLD124_chi.LOD1	0.059176
	8307	H	-18.491908	13.044093	24.067524	H	1	YLD124_chi.LOD1	0.075606
	8308	H	-18.655356	13.756038	22.458745	H	1	YLD124_chi.LOD1	0.056098
	8309	C	-21.393803	16.726280	17.529211	C	1	YLD124_chi.LOD1	-0.311529
	8310	H	-21.445794	16.707820	16.431161	H	1	YLD124_chi.LOD1	0.071087
	8311	H	-20.584748	17.415207	17.802438	H	1	YLD124_chi.LOD1	0.058721
	8312	H	-21.101684	15.720294	17.855306	H	1	YLD124_chi.LOD1	0.056179
	8313	C	-19.844041	15.416587	24.359164	C	1	YLD124_chi.LOD1	-0.279876
	8314	H	-20.049408	16.393215	24.813359	H	1	YLD124_chi.LOD1	0.048405
	8315	H	-20.446963	15.340730	23.446453	H	1	YLD124_chi.LOD1	0.047411
	8316	H	-20.205132	14.644649	25.054093	H	1	YLD124_chi.LOD1	0.054899
	8317	C	-17.571830	15.258589	25.415177	C	1	YLD124_chi.LOD1	-0.273001
	8318	H	-17.915985	14.447698	26.073487	H	1	YLD124_chi.LOD1	0.0526
	8319	H	-16.490907	15.128163	25.280139	H	1	YLD124_chi.LOD1	0.034813
	8320	H	-17.732292	16.200039	25.954314	H	1	YLD124_chi.LOD1	0.061699
	8321	C	-23.842126	16.159252	17.673614	C	1	YLD124_chi.LOD1	-0.202774
	8322	H	-23.620724	15.136002	18.001552	H	1	YLD124_chi.LOD1	0.027959
	8323	H	-24.827205	16.432743	18.067751	H	1	YLD124_chi.LOD1	0.030756
	8324	H	-23.914803	16.140824	16.576576	H	1	YLD124_chi.LOD1	0.045471
	8325	C	-23.114156	18.562467	17.586864	C	1	YLD124_chi.LOD1	-0.266625
	8326	H	-22.351999	19.307750	17.845668	H	1	YLD124_chi.LOD1	0.041283
	8327	H	-23.192383	18.544610	16.490246	H	1	YLD124_chi.LOD1	0.059445
	8328	H	-24.074100	18.910847	17.983791	H	1	YLD124_chi.LOD1	0.054675
	8329	C	-21.868930	15.679812	20.719671	C	1	YLD124_chi.LOD1	-0.410828
	8330	H	-22.015919	14.817186	20.060118	H	1	YLD124_chi.LOD1	0.093855
	8331	H	-20.788887	15.807402	20.863190	H	1	YLD124_chi.LOD1	0.090546
	8332	H	-22.295129	15.427378	21.698207	H	1	YLD124_chi.LOD1	0.070213
	8333	C	-24.278478	17.436399	20.810193	C	1	YLD124_chi.LOD1	-0.460074
	8334	H	-24.335224	18.392252	21.345309	H	1	YLD124_chi.LOD1	0.099819
	8335	H	-25.082767	17.424941	20.066214	H	1	YLD124_chi.LOD1	0.10243
	8336	H	-24.489584	16.646977	21.541598	H	1	YLD124_chi.LOD1	0.086844
	8337	C	-17.030418	15.927636	21.362170	C	1	YLD124_chi.LOD1	-0.477029
	8338	H	-16.297845	15.142062	21.577541	H	1	YLD124_chi.LOD1	0.107463
	8339	H	-17.820723	15.481622	20.747336	H	1	YLD124_chi.LOD1	0.106999
	8340	H	-16.531651	16.694648	20.758065	H	1	YLD124_chi.LOD1	0.090486
	8341	C	-16.493762	17.684649	23.728018	C	1	YLD124_chi.LOD1	-0.470103
	8342	H	-16.979626	18.372367	24.430986	H	1	YLD124_chi.LOD1	0.112461
	8343	H	-15.740116	17.116143	24.284995	H	1	YLD124_chi.LOD1	0.098066
	8344	H	-15.959883	18.298226	22.992526	H	1	YLD124_chi.LOD1	0.083138
	8345	Si	-17.734900	16.622700	22.896600	Si	1	YLD124_chi.LOD1	0.770043
	8346	Si	-22.635100	17.197100	20.034600	Si	1	YLD124_chi.LOD1	0.73989
	8347	H	-19.129558	18.865040	23.896839	H	1	YLD124_chi.LOD1	-0.017464
	8348	H	-20.964489	21.305059	21.543909	H	1	YLD124_chi.LOD1	0.058354
	8349	H	-22.563561	19.866386	21.550769	H	1	YLD124_chi.LOD1	-0.04034
	8350	H	-22.681797	20.153040	19.804196	H	1	YLD124_chi.LOD1	-0.007901
	8351	H	-20.865895	21.296494	19.795160	H	1	YLD124_chi.LOD1	0.028132
	8352	H	-17.982447	19.769096	21.971144	H	1	YLD124_chi.LOD1	-0.011538
	8353	H	-19.251901	20.794455	22.605615	H	1	YLD124_chi.LOD1	0.020652
	8354	H	-20.559973	18.760592	22.857481	H	1	YLD124_chi.LOD1	-0.064856
	8355	C	-15.862395	14.700961	12.637295	C	1	YLD124_chi.LOD1	-0.299384
	8356	H	-16.956850	14.632461	12.639571	H	1	YLD124_chi.LOD1	0.066854
	8357	H	-15.489059	14.024354	11.859295	H	1	YLD124_chi.LOD1	0.072315
	8358	H	-15.501366	14.332616	13.602594	H	1	YLD124_chi.LOD1	0.027971
	8359	C	-15.976554	16.599590	11.004877	C	1	YLD124_chi.LOD1	-0.427943
	8360	H	-17.072938	16.571657	11.008608	H	1	YLD124_chi.LOD1	0.089807
	8361	H	-15.667327	17.623234	10.760572	H	1	YLD124_chi.LOD1	0.091303
	8362	H	-15.630914	15.942744	10.197581	H	1	YLD124_chi.LOD1	0.089757
	8363	C	-8.727471	16.456823	10.274604	C	1	YLD124_chi.LOD1	-0.158763
	8364	C	-10.395101	15.483507	8.825339	C	1	YLD124_chi.LOD1	-0.147279
	8365	C	-8.945071	17.704256	9.696565	C	1	YLD124_chi.LOD1	-0.065518
	8366	H	-7.986474	16.355324	11.061780	H	1	YLD124_chi.LOD1	0.080042
	8367	C	-10.617189	16.738317	8.253790	C	1	YLD124_chi.LOD1	-0.090746
	8368	H	-10.959766	14.636681	8.457777	H	1	YLD124_chi.LOD1	0.09871
	8369	C	-9.895712	17.850149	8.684236	C	1	YLD124_chi.LOD1	-0.09866
	8370	H	-8.371650	18.561205	10.038107	H	1	YLD124_chi.LOD1	0.104949
	8371	H	-10.068363	18.822961	8.232410	H	1	YLD124_chi.LOD1	0.102095
	8372	H	-11.353123	16.837835	7.460879	H	1	YLD124_chi.LOD1	0.105434
	8373	F	-9.643076	12.235145	8.965490	F	1	YLD124_chi.LOD1	-0.19867
	8374	F	-11.326568	13.253985	9.875479	F	1	YLD124_chi.LOD1	-0.154403
	8375	F	-10.117177	11.887984	11.061004	F	1	YLD124_chi.LOD1	-0.186491
	8376	C	-23.859017	-24.487853	6.587016	C	2	YLD124_chi.LOD1	-0.150166
	8377	C	-24.988166	-24.024944	7.195126	C	2	YLD124_chi.LOD1	-0.190723
	8378	H	-25.664200	-23.384322	6.630945	H	2	YLD124_chi.LOD1	0.123134
	8379	H	-23.181590	-25.111797	7.167653	H	2	YLD124_chi.LOD1	0.111619
	8380	N	-21.931618	-23.487653	1.310730	N	2	YLD124_chi.LOD1	-0.506176
	8381	C	-22.424825	-23.753120	2.577236	C	2	YLD124_chi.LOD1	0.404469
	8382	C	-23.677758	-23.241344	3.010772	C	2	YLD124_chi.LOD1	-0.281203
	8383	C	-24.147079	-23.469718	4.290993	C	2	YLD124_chi.LOD1	-0.112562
	8384	C	-23.419681	-24.230834	5.231705	C	2	YLD124_chi.LOD1	0.131862
	8385	C	-22.189784	-24.758754	4.787975	C	2	YLD124_chi.LOD1	-0.140167
	8386	C	-21.702380	-24.538570	3.510705	C	2	YLD124_chi.LOD1	-0.26473
	8387	H	-24.293722	-22.658415	2.337517	H	2	YLD124_chi.LOD1	0.177954
	8388	H	-25.109611	-23.047633	4.564651	H	2	YLD124_chi.LOD1	0.098859
	8389	H	-21.597963	-25.361545	5.473537	H	2	YLD124_chi.LOD1	0.103807
	8390	H	-20.752525	-24.982124	3.239350	H	2	YLD124_chi.LOD1	0.161189
	8391	C	-25.376501	-24.271032	8.557285	C	2	YLD124_chi.LOD1	0.100982
	8392	C	-26.515335	-23.676791	9.051887	C	2	YLD124_chi.LOD1	-0.303623
	8393	C	-24.533363	-25.141926	9.464900	C	2	YLD124_chi.LOD1	0.096207
	8394	H	-27.113711	-23.063633	8.379680	H	2	YLD124_chi.LOD1	0.124941
	8395	C	-25.303616	-25.720049	10.675027	C	2	YLD124_chi.LOD1	0.409462
	8396	H	-24.097079	-25.969247	8.892415	H	2	YLD124_chi.LOD1	-0.020765
	8397	C	-26.086698	-24.574368	11.357902	C	2	YLD124_chi.LOD1	-0.014279
	8398	H	-25.365337	-23.874232	11.807118	H	2	YLD124_chi.LOD1	-0.02177
	8399	C	-26.964251	-23.795924	10.400922	C	2	YLD124_chi.LOD1	0.179445
	8400	C	-28.118014	-23.120984	10.650794	C	2	YLD124_chi.LOD1	-0.27725
	8401	H	-28.651238	-22.573185	9.873980	H	2	YLD124_chi.LOD1	0.132087
	8402	C	-28.686230	-23.098976	11.944598	C	2	YLD124_chi.LOD1	0.141075
	8403	C	-29.852955	-22.423838	12.240379	C	2	YLD124_chi.LOD1	-0.327608
	8404	H	-28.170799	-23.623957	12.740446	H	2	YLD124_chi.LOD1	-0.027316
	8405	C	-30.484618	-22.333598	13.499730	C	2	YLD124_chi.LOD1	0.260653
	8406	C	-31.622021	-21.585451	13.781924	C	2	YLD124_chi.LOD1	-0.287606
	8407	C	-30.068025	-23.013979	14.806598	C	2	YLD124_chi.LOD1	-0.056548
	8408	C	-31.939577	-21.711648	15.179106	C	2	YLD124_chi.LOD1	0.509074
	8409	C	-32.313151	-20.816042	12.811896	C	2	YLD124_chi.LOD1	0.396907
	8410	O	-31.018434	-22.501230	15.781654	O	2	YLD124_chi.LOD1	-0.366332
	8411	C	-28.634343	-22.741634	15.373640	C	2	YLD124_chi.LOD1	0.253806
	8412	C	-30.337962	-24.625192	14.862105	C	2	YLD124_chi.LOD1	0.598114
	8413	C	-32.948764	-21.174284	15.947306	C	2	YLD124_chi.LOD1	-0.43234
	8414	N	-32.809431	-20.211874	11.948636	N	2	YLD124_chi.LOD1	-0.430249
	8415	C	-33.952008	-20.322119	15.402295	C	2	YLD124_chi.LOD1	0.437474
	8416	C	-33.014559	-21.465604	17.342414	C	2	YLD124_chi.LOD1	0.49223
	8417	N	-34.790519	-19.621651	14.998807	N	2	YLD124_chi.LOD1	-0.451871
	8418	N	-33.079325	-21.693311	18.482585	N	2	YLD124_chi.LOD1	-0.482758
	8419	H	-30.345885	-21.880257	11.436211	H	2	YLD124_chi.LOD1	0.157364
	8420	H	-26.674308	-24.982958	12.186602	H	2	YLD124_chi.LOD1	0.040059
	8421	H	-23.681897	-24.545871	9.828790	H	2	YLD124_chi.LOD1	-0.024244
	8422	C	-22.660232	-22.764436	0.329181	C	2	YLD124_chi.LOD1	0.240322
	8423	C	-20.704384	-24.044493	0.832581	C	2	YLD124_chi.LOD1	0.113854
	8424	C	-20.665396	-25.360167	0.280118	C	2	YLD124_chi.LOD1	0.29958
	8425	C	-23.501274	-23.501127	-0.549750	C	2	YLD124_chi.LOD1	0.285774
	8426	O	-23.671500	-24.765000	-0.113951	O	2	YLD124_chi.LOD1	-0.61175
	8427	O	-20.714200	-26.343200	1.200370	O	2	YLD124_chi.LOD1	-0.599726
	8428	C	-20.172412	-28.831190	2.489505	C	2	YLD124_chi.LOD1	0.275329
	8429	C	-25.730096	-26.300018	-1.584231	C	2	YLD124_chi.LOD1	0.358728
	8430	C	-26.618003	-25.225697	-2.250470	C	2	YLD124_chi.LOD1	-0.337707
	8431	H	-26.060523	-24.306219	-2.468336	H	2	YLD124_chi.LOD1	0.059176
	8432	H	-27.015213	-25.597952	-3.205736	H	2	YLD124_chi.LOD1	0.075606
	8433	H	-27.478806	-24.955768	-1.626358	H	2	YLD124_chi.LOD1	0.056098
	8434	C	-20.740060	-29.683962	1.333344	C	2	YLD124_chi.LOD1	-0.311529
	8435	H	-21.193981	-30.604453	1.727565	H	2	YLD124_chi.LOD1	0.071087
	8436	H	-21.519892	-29.154450	0.771807	H	2	YLD124_chi.LOD1	0.058721
	8437	H	-19.962037	-29.987094	0.621676	H	2	YLD124_chi.LOD1	0.056179
	8438	C	-26.566352	-27.578095	-1.356519	C	2	YLD124_chi.LOD1	-0.279876
	8439	H	-25.980423	-28.364424	-0.865963	H	2	YLD124_chi.LOD1	0.048405
	8440	H	-27.449799	-27.385487	-0.736249	H	2	YLD124_chi.LOD1	0.047411
	8441	H	-26.922526	-27.979284	-2.316409	H	2	YLD124_chi.LOD1	0.054899
	8442	C	-24.558296	-26.635645	-2.532345	C	2	YLD124_chi.LOD1	-0.273001
	8443	H	-24.940034	-26.987819	-3.501679	H	2	YLD124_chi.LOD1	0.0526
	8444	H	-23.922236	-25.764537	-2.732945	H	2	YLD124_chi.LOD1	0.034813
	8445	H	-23.920833	-27.432005	-2.129610	H	2	YLD124_chi.LOD1	0.061699
	8446	C	-19.103209	-29.649632	3.245462	C	2	YLD124_chi.LOD1	-0.202774
	8447	H	-18.278274	-29.954194	2.589469	H	2	YLD124_chi.LOD1	0.027959
	8448	H	-18.676853	-29.082339	4.080280	H	2	YLD124_chi.LOD1	0.030756
	8449	H	-19.547073	-30.567377	3.657580	H	2	YLD124_chi.LOD1	0.045471
	8450	C	-21.315051	-28.478398	3.466538	C	2	YLD124_chi.LOD1	-0.266625
	8451	H	-22.122536	-27.925918	2.970510	H	2	YLD124_chi.LOD1	0.041283
	8452	H	-21.756580	-29.394976	3.883605	H	2	YLD124_chi.LOD1	0.059445
	8453	H	-20.956298	-27.870252	4.304314	H	2	YLD124_chi.LOD1	0.054675
	8454	C	-18.229771	-27.561018	0.408758	C	2	YLD124_chi.LOD1	-0.410828
	8455	H	-17.420461	-26.823011	0.375553	H	2	YLD124_chi.LOD1	0.093855
	8456	H	-17.770781	-28.552390	0.508159	H	2	YLD124_chi.LOD1	0.090546
	8457	H	-18.740203	-27.539503	-0.561756	H	2	YLD124_chi.LOD1	0.070213
	8458	C	-18.533300	-26.262568	3.076939	C	2	YLD124_chi.LOD1	-0.460074
	8459	H	-18.291345	-25.249989	2.731446	H	2	YLD124_chi.LOD1	0.099819
	8460	H	-19.141139	-26.166910	3.983525	H	2	YLD124_chi.LOD1	0.10243
	8461	H	-17.586798	-26.739373	3.358894	H	2	YLD124_chi.LOD1	0.086844
	8462	C	-24.577867	-27.031824	1.205252	C	2	YLD124_chi.LOD1	-0.477029
	8463	H	-25.008787	-27.984168	0.877342	H	2	YLD124_chi.LOD1	0.107463
	8464	H	-23.487454	-27.143487	1.197498	H	2	YLD124_chi.LOD1	0.106999
	8465	H	-24.887831	-26.863346	2.243306	H	2	YLD124_chi.LOD1	0.090486
	8466	C	-26.341112	-24.623873	0.954895	C	2	YLD124_chi.LOD1	-0.470103
	8467	H	-26.894566	-24.017084	0.227791	H	2	YLD124_chi.LOD1	0.112461
	8468	H	-27.071640	-25.208071	1.526249	H	2	YLD124_chi.LOD1	0.098066
	8469	H	-25.860453	-23.930387	1.655249	H	2	YLD124_chi.LOD1	0.083138
	8470	Si	-25.083900	-25.658700	0.113398	Si	2	YLD124_chi.LOD1	0.770043
	8471	Si	-19.398700	-27.226200	1.779910	Si	2	YLD124_chi.LOD1	0.73989
	8472	H	-24.478850	-23.006546	-0.645343	H	2	YLD124_chi.LOD1	-0.017464
	8473	H	-20.264145	-23.336818	0.124349	H	2	YLD124_chi.LOD1	0.058354
	8474	H	-21.549532	-25.423143	-0.370254	H	2	YLD124_chi.LOD1	-0.04034
	8475	H	-19.777178	-25.495242	-0.355207	H	2	YLD124_chi.LOD1	-0.007901
	8476	H	-20.016205	-24.096987	1.682742	H	2	YLD124_chi.LOD1	0.028132
	8477	H	-23.285132	-22.040238	0.861659	H	2	YLD124_chi.LOD1	-0.011538
	8478	H	-21.949561	-22.179708	-0.261830	H	2	YLD124_chi.LOD1	0.020652
	8479	H	-23.044612	-23.519865	-1.549070	H	2	YLD124_chi.LOD1	-0.064856
	8480	C	-26.252056	-26.788224	10.155866	C	2	YLD124_chi.LOD1	-0.299384
	8481	H	-25.698845	-27.615920	9.696075	H	2	YLD124_chi.LOD1	0.066854
	8482	H	-26.808122	-27.194197	11.009350	H	2	YLD124_chi.LOD1	0.072315
	8483	H	-26.980369	-26.424431	9.424403	H	2	YLD124_chi.LOD1	0.027971
	8484	C	-24.282102	-26.272810	11.617455	C	2	YLD124_chi.LOD1	-0.427943
	8485	H	-23.695924	-27.076794	11.156092	H	2	YLD124_chi.LOD1	0.089807
	8486	H	-23.580746	-25.512547	11.982495	H	2	YLD124_chi.LOD1	0.091303
	8487	H	-24.799939	-26.696656	12.486270	H	2	YLD124_chi.LOD1	0.089757
	8488	C	-28.246293	-21.395066	15.304538	C	2	YLD124_chi.LOD1	-0.158763
	8489	C	-27.740698	-23.676287	15.912085	C	2	YLD124_chi.LOD1	-0.147279
	8490	C	-26.993063	-20.991137	15.756006	C	2	YLD124_chi.LOD1	-0.065518
	8491	H	-28.930291	-20.656684	14.897155	H	2	YLD124_chi.LOD1	0.080042
	8492	C	-26.480689	-23.268907	16.355884	C	2	YLD124_chi.LOD1	-0.090746
	8493	H	-28.010671	-24.720631	15.998818	H	2	YLD124_chi.LOD1	0.09871
	8494	C	-26.102489	-21.929745	16.281083	C	2	YLD124_chi.LOD1	-0.09866
	8495	H	-26.713578	-19.943188	15.696708	H	2	YLD124_chi.LOD1	0.104949
	8496	H	-25.123261	-21.617219	16.632874	H	2	YLD124_chi.LOD1	0.102095
	8497	H	-25.799684	-24.006797	16.770565	H	2	YLD124_chi.LOD1	0.105434
	8498	F	-29.611053	-25.290236	15.772819	F	2	YLD124_chi.LOD1	-0.19867
	8499	F	-30.052903	-25.140981	13.655568	F	2	YLD124_chi.LOD1	-0.154403
	8500	F	-31.642996	-24.870573	15.115890	F	2	YLD124_chi.LOD1	-0.186491
	8501	C	7.244412	19.781932	-14.975829	C	3	YLD124_chi.LOD1	-0.150166
	8502	C	7.902222	20.679690	-14.188189	C	3	YLD124_chi.LOD1	-0.190723
	8503	H	7.783570	21.742955	-14.390940	H	3	YLD124_chi.LOD1	0.123134
	8504	H	7.386304	18.721324	-14.775006	H	3	YLD124_chi.LOD1	0.111619
	8505	N	3.861001	20.723737	-19.472493	N	3	YLD124_chi.LOD1	-0.506176
	8506	C	4.654954	20.506305	-18.358884	C	3	YLD124_chi.LOD1	0.404469
	8507	C	5.193240	21.584856	-17.606098	C	3	YLD124_chi.LOD1	-0.281203
	8508	C	6.022710	21.365648	-16.521981	C	3	YLD124_chi.LOD1	-0.112562
	8509	C	6.370284	20.065746	-16.094441	C	3	YLD124_chi.LOD1	0.131862
	8510	C	5.812048	18.998915	-16.828258	C	3	YLD124_chi.LOD1	-0.140167
	8511	C	4.981591	19.198920	-17.918121	C	3	YLD124_chi.LOD1	-0.26473
	8512	H	4.958946	22.608271	-17.871085	H	3	YLD124_chi.LOD1	0.177954
	8513	H	6.406882	22.231050	-15.990001	H	3	YLD124_chi.LOD1	0.098859
	8514	H	6.041801	17.978174	-16.530089	H	3	YLD124_chi.LOD1	0.103807
	8515	H	4.585054	18.330142	-18.428593	H	3	YLD124_chi.LOD1	0.161189
	8516	C	8.793052	20.361392	-13.105624	C	3	YLD124_chi.LOD1	0.100982
	8517	C	9.440023	21.379646	-12.442839	C	3	YLD124_chi.LOD1	-0.303623
	8518	C	9.058470	18.924250	-12.709038	C	3	YLD124_chi.LOD1	0.096207
	8519	H	9.226506	22.406527	-12.735765	H	3	YLD124_chi.LOD1	0.124941
	8520	C	9.592884	18.758121	-11.267259	C	3	YLD124_chi.LOD1	0.409462
	8521	H	8.144357	18.328867	-12.820657	H	3	YLD124_chi.LOD1	-0.020765
	8522	C	10.755610	19.754886	-11.051271	C	3	YLD124_chi.LOD1	-0.014279
	8523	H	11.601061	19.452533	-11.688565	H	3	YLD124_chi.LOD1	-0.02177
	8524	C	10.391975	21.182855	-11.398485	C	3	YLD124_chi.LOD1	0.179445
	8525	C	10.893259	22.342320	-10.895311	C	3	YLD124_chi.LOD1	-0.27725
	8526	H	10.563438	23.319675	-11.247229	H	3	YLD124_chi.LOD1	0.132087
	8527	C	11.876325	22.333651	-9.880034	C	3	YLD124_chi.LOD1	0.141075
	8528	C	12.412827	23.487162	-9.345129	C	3	YLD124_chi.LOD1	-0.327608
	8529	H	12.233394	21.375917	-9.519623	H	3	YLD124_chi.LOD1	-0.027316
	8530	C	13.404282	23.576453	-8.344056	C	3	YLD124_chi.LOD1	0.260653
	8531	C	13.977028	24.753781	-7.876186	C	3	YLD124_chi.LOD1	-0.287606
	8532	C	14.061564	22.428623	-7.572799	C	3	YLD124_chi.LOD1	-0.056548
	8533	C	14.974729	24.437782	-6.889463	C	3	YLD124_chi.LOD1	0.509074
	8534	C	13.614647	26.041279	-8.346969	C	3	YLD124_chi.LOD1	0.396907
	8535	O	15.055717	23.093410	-6.744160	O	3	YLD124_chi.LOD1	-0.366332
	8536	C	14.805652	21.310076	-8.376635	C	3	YLD124_chi.LOD1	0.253806
	8537	C	13.100520	21.706148	-6.465684	C	3	YLD124_chi.LOD1	0.598114
	8538	C	15.815096	25.232083	-6.140986	C	3	YLD124_chi.LOD1	-0.43234
	8539	N	13.254140	27.052557	-8.798501	N	3	YLD124_chi.LOD1	-0.430249
	8540	C	15.810006	26.653416	-6.238494	C	3	YLD124_chi.LOD1	0.437474
	8541	C	16.733997	24.634868	-5.227489	C	3	YLD124_chi.LOD1	0.49223
	8542	N	15.839697	27.816740	-6.287020	N	3	YLD124_chi.LOD1	-0.451871
	8543	N	17.490273	24.160881	-4.479546	N	3	YLD124_chi.LOD1	-0.482758
	8544	H	12.062529	24.441365	-9.734920	H	3	YLD124_chi.LOD1	0.157364
	8545	H	11.108383	19.679102	-10.017451	H	3	YLD124_chi.LOD1	0.040059
	8546	H	9.785293	18.495152	-13.416354	H	3	YLD124_chi.LOD1	-0.024244
	8547	C	3.482299	22.030858	-19.874953	C	3	YLD124_chi.LOD1	0.240322
	8548	C	3.248150	19.673138	-20.226141	C	3	YLD124_chi.LOD1	0.113854
	8549	C	1.848451	19.464885	-20.081784	C	3	YLD124_chi.LOD1	0.29958
	8550	C	2.547505	22.834829	-19.146109	C	3	YLD124_chi.LOD1	0.285774
	8551	O	1.567690	23.439100	-19.846900	O	3	YLD124_chi.LOD1	-0.61175
	8552	O	1.346600	20.240100	-19.100500	O	3	YLD124_chi.LOD1	-0.599726
	8553	C	0.737811	19.206207	-16.510070	C	3	YLD124_chi.LOD1	0.275329
	8554	C	1.357650	26.119058	-18.599463	C	3	YLD124_chi.LOD1	0.358728
	8555	C	1.456753	25.189287	-17.369779	C	3	YLD124_chi.LOD1	-0.337707
	8556	H	2.399050	24.627651	-17.351566	H	3	YLD124_chi.LOD1	0.059176
	8557	H	1.412197	25.777759	-16.442094	H	3	YLD124_chi.LOD1	0.075606
	8558	H	0.633988	24.464722	-17.332082	H	3	YLD124_chi.LOD1	0.056098
	8559	C	1.655779	20.243954	-15.827011	C	3	YLD124_chi.LOD1	-0.311529
	8560	H	2.088304	19.822224	-14.908412	H	3	YLD124_chi.LOD1	0.071087
	8561	H	2.492922	20.543613	-16.469849	H	3	YLD124_chi.LOD1	0.058721
	8562	H	1.111891	21.152495	-15.539923	H	3	YLD124_chi.LOD1	0.056179
	8563	C	0.034319	26.911877	-18.529503	C	3	YLD124_chi.LOD1	-0.279876
	8564	H	-0.088849	27.573180	-19.395401	H	3	YLD124_chi.LOD1	0.048405
	8565	H	-0.839031	26.250091	-18.489382	H	3	YLD124_chi.LOD1	0.047411
	8566	H	0.010445	27.539088	-17.626598	H	3	YLD124_chi.LOD1	0.054899
	8567	C	2.536313	27.116216	-18.566147	C	3	YLD124_chi.LOD1	-0.273001
	8568	H	2.519065	27.697008	-17.632476	H	3	YLD124_chi.LOD1	0.0526
	8569	H	3.509639	26.612351	-18.615107	H	3	YLD124_chi.LOD1	0.034813
	8570	H	2.487852	27.835339	-19.392742	H	3	YLD124_chi.LOD1	0.061699
	8571	C	-0.397258	18.816218	-15.538454	C	3	YLD124_chi.LOD1	-0.202774
	8572	H	-0.999959	19.683192	-15.240611	H	3	YLD124_chi.LOD1	0.027959
	8573	H	-1.071112	18.074997	-15.982339	H	3	YLD124_chi.LOD1	0.030756
	8574	H	0.020882	18.379588	-14.619963	H	3	YLD124_chi.LOD1	0.045471
	8575	C	1.562673	17.944976	-16.847084	C	3	YLD124_chi.LOD1	-0.266625
	8576	H	2.408001	18.172614	-17.508077	H	3	YLD124_chi.LOD1	0.041283
	8577	H	1.977225	17.504078	-15.929061	H	3	YLD124_chi.LOD1	0.059445
	8578	H	0.949155	17.180381	-17.336371	H	3	YLD124_chi.LOD1	0.054675
	8579	C	-0.875615	21.535287	-17.808188	C	3	YLD124_chi.LOD1	-0.410828
	8580	H	-0.335821	22.391227	-18.228581	H	3	YLD124_chi.LOD1	0.093855
	8581	H	-1.878683	21.525155	-18.252172	H	3	YLD124_chi.LOD1	0.090546
	8582	H	-1.001967	21.716205	-16.733849	H	3	YLD124_chi.LOD1	0.070213
	8583	C	-1.136386	18.792305	-18.948670	C	3	YLD124_chi.LOD1	-0.460074
	8584	H	-1.379585	19.124891	-19.965265	H	3	YLD124_chi.LOD1	0.099819
	8585	H	-0.706069	17.787399	-19.022882	H	3	YLD124_chi.LOD1	0.10243
	8586	H	-2.084343	18.709643	-18.403462	H	3	YLD124_chi.LOD1	0.086844
	8587	C	2.844622	25.473950	-21.234256	C	3	YLD124_chi.LOD1	-0.477029
	8588	H	3.185517	24.603612	-21.805638	H	3	YLD124_chi.LOD1	0.107463
	8589	H	2.604987	26.266467	-21.952603	H	3	YLD124_chi.LOD1	0.106999
	8590	H	3.684371	25.822710	-20.621715	H	3	YLD124_chi.LOD1	0.090486
	8591	C	-0.146899	25.315137	-21.199870	C	3	YLD124_chi.LOD1	-0.470103
	8592	H	-0.755018	24.402246	-21.202271	H	3	YLD124_chi.LOD1	0.112461
	8593	H	-0.775453	26.133365	-20.829970	H	3	YLD124_chi.LOD1	0.098066
	8594	H	0.100071	25.541640	-22.243975	H	3	YLD124_chi.LOD1	0.083138
	8595	Si	1.381660	25.074100	-20.217500	Si	3	YLD124_chi.LOD1	0.770043
	8596	Si	0.006240	19.958500	-18.115500	Si	3	YLD124_chi.LOD1	0.73989
	8597	H	2.107697	22.134125	-18.421550	H	3	YLD124_chi.LOD1	-0.017464
	8598	H	3.466788	19.849122	-21.283229	H	3	YLD124_chi.LOD1	0.058354
	8599	H	1.342378	19.699762	-21.029079	H	3	YLD124_chi.LOD1	-0.04034
	8600	H	1.648336	18.407268	-19.853276	H	3	YLD124_chi.LOD1	-0.007901
	8601	H	3.760282	18.743447	-19.956857	H	3	YLD124_chi.LOD1	0.028132
	8602	H	4.397223	22.620411	-19.992580	H	3	YLD124_chi.LOD1	-0.011538
	8603	H	3.028073	21.968841	-20.867972	H	3	YLD124_chi.LOD1	0.020652
	8604	H	3.104362	23.590322	-18.574554	H	3	YLD124_chi.LOD1	-0.064856
	8605	C	8.448183	19.047727	-10.310350	C	3	YLD124_chi.LOD1	-0.299384
	8606	H	7.633522	18.325411	-10.441185	H	3	YLD124_chi.LOD1	0.066854
	8607	H	8.825002	18.941173	-9.286087	H	3	YLD124_chi.LOD1	0.072315
	8608	H	8.024705	20.052158	-10.408364	H	3	YLD124_chi.LOD1	0.027971
	8609	C	10.095141	17.354215	-11.148298	C	3	YLD124_chi.LOD1	-0.427943
	8610	H	9.296638	16.621059	-11.314812	H	3	YLD124_chi.LOD1	0.089807
	8611	H	10.908770	17.129854	-11.848888	H	3	YLD124_chi.LOD1	0.091303
	8612	H	10.476718	17.203604	-10.131266	H	3	YLD124_chi.LOD1	0.089757
	8613	C	15.603524	21.801213	-9.421043	C	3	YLD124_chi.LOD1	-0.158763
	8614	C	14.745490	19.926801	-8.164436	C	3	YLD124_chi.LOD1	-0.147279
	8615	C	16.319670	20.932119	-10.239198	C	3	YLD124_chi.LOD1	-0.065518
	8616	H	15.667271	22.871288	-9.593956	H	3	YLD124_chi.LOD1	0.080042
	8617	C	15.458293	19.057215	-8.992851	C	3	YLD124_chi.LOD1	-0.090746
	8618	H	14.155695	19.511182	-7.357921	H	3	YLD124_chi.LOD1	0.09871
	8619	C	16.246270	19.553543	-10.029545	C	3	YLD124_chi.LOD1	-0.09866
	8620	H	16.934186	21.333141	-11.040058	H	3	YLD124_chi.LOD1	0.104949
	8621	H	16.803201	18.873060	-10.667580	H	3	YLD124_chi.LOD1	0.102095
	8622	H	15.400333	17.987140	-8.814555	H	3	YLD124_chi.LOD1	0.105434
	8623	F	12.177164	22.617436	-6.123556	F	3	YLD124_chi.LOD1	-0.19867
	8624	F	13.728056	21.318737	-5.343570	F	3	YLD124_chi.LOD1	-0.154403
	8625	F	12.453283	20.630189	-6.966812	F	3	YLD124_chi.LOD1	-0.186491
	8626	C	19.312571	10.005858	-14.366600	C	1	YLD124.LOD1	-0.158041
	8627	C	18.086345	9.559218	-14.761509	C	1	YLD124.LOD1	-0.174247
	8628	H	17.304578	9.442473	-14.012570	H	1	YLD124.LOD1	0.11023
	8629	H	20.091601	10.105675	-15.120596	H	1	YLD124.LOD1	0.116594
	8630	N	21.101655	11.480279	-9.151975	N	1	YLD124.LOD1	-0.477879
	8631	C	20.653387	11.135812	-10.416074	C	1	YLD124.LOD1	0.383639
	8632	C	19.320127	10.696828	-10.638769	C	1	YLD124.LOD1	-0.278193
	8633	C	18.882398	10.326391	-11.896670	C	1	YLD124.LOD1	-0.102205
	8634	C	19.725838	10.371395	-13.028014	C	1	YLD124.LOD1	0.126725
	8635	C	21.044694	10.817116	-12.803761	C	1	YLD124.LOD1	-0.148338
	8636	C	21.501063	11.192061	-11.551204	C	1	YLD124.LOD1	-0.248652
	8637	H	18.615944	10.645607	-9.817803	H	1	YLD124.LOD1	0.176041
	8638	H	17.853010	9.996662	-12.001897	H	1	YLD124.LOD1	0.098595
	8639	H	21.731219	10.874265	-13.645796	H	1	YLD124.LOD1	0.105176
	8640	H	22.524069	11.534722	-11.458168	H	1	YLD124.LOD1	0.157607
	8641	C	17.703919	9.199144	-16.099625	C	1	YLD124.LOD1	0.13089
	8642	C	16.432021	8.726725	-16.332110	C	1	YLD124.LOD1	-0.298955
	8643	C	18.681256	9.310515	-17.251063	C	1	YLD124.LOD1	0.000678
	8644	H	15.741162	8.664351	-15.492636	H	1	YLD124.LOD1	0.128536
	8645	C	18.007089	9.421171	-18.638804	C	1	YLD124.LOD1	0.312314
	8646	H	19.338614	10.175845	-17.104932	H	1	YLD124.LOD1	0.009572
	8647	C	16.932625	8.315031	-18.757834	C	1	YLD124.LOD1	0.132423
	8648	H	17.436711	7.336280	-18.777071	H	1	YLD124.LOD1	-0.011706
	8649	C	15.947407	8.312562	-17.608486	C	1	YLD124.LOD1	0.094029
	8650	C	14.643398	7.924016	-17.596121	C	1	YLD124.LOD1	-0.194272
	8651	H	14.040639	7.942177	-16.688260	H	1	YLD124.LOD1	0.118653
	8652	C	14.001264	7.480481	-18.774194	C	1	YLD124.LOD1	0.029031
	8653	C	12.672416	7.110171	-18.812784	C	1	YLD124.LOD1	-0.298661
	8654	H	14.580531	7.440772	-19.689253	H	1	YLD124.LOD1	0.063317
	8655	C	11.942342	6.696105	-19.947930	C	1	YLD124.LOD1	0.24754
	8656	C	10.580852	6.415498	-19.977199	C	1	YLD124.LOD1	-0.281071
	8657	C	12.466371	6.486870	-21.371479	C	1	YLD124.LOD1	-0.098074
	8658	C	10.192697	6.085356	-21.322234	C	1	YLD124.LOD1	0.526995
	8659	C	9.742438	6.486045	-18.835900	C	1	YLD124.LOD1	0.389724
	8660	O	11.270515	6.178332	-22.138519	O	1	YLD124.LOD1	-0.351072
	8661	C	13.375000	5.151826	-21.577307	C	1	YLD124.LOD1	0.617997
	8662	C	13.181691	7.677365	-22.089932	C	1	YLD124.LOD1	0.253109
	8663	C	8.978613	5.739616	-21.873168	C	1	YLD124.LOD1	-0.451385
	8664	N	9.134551	6.575967	-17.846493	N	1	YLD124.LOD1	-0.428829
	8665	F	12.708272	4.133391	-21.013358	F	1	YLD124.LOD1	-0.200469
	8666	F	13.637116	4.816584	-22.850550	F	1	YLD124.LOD1	-0.158364
	8667	F	14.556538	5.278153	-20.933032	F	1	YLD124.LOD1	-0.193377
	8668	C	13.498098	8.729009	-21.217009	C	1	YLD124.LOD1	-0.158716
	8669	C	13.454470	7.825468	-23.455708	C	1	YLD124.LOD1	-0.162688
	8670	C	7.790056	5.632379	-21.094961	C	1	YLD124.LOD1	0.447489
	8671	C	8.880136	5.474146	-23.271521	C	1	YLD124.LOD1	0.491336
	8672	H	13.285233	8.632176	-20.156572	H	1	YLD124.LOD1	0.085247
	8673	C	14.080718	9.899475	-21.694314	C	1	YLD124.LOD1	-0.074329
	8674	C	14.048032	8.997859	-23.930027	C	1	YLD124.LOD1	-0.055824
	8675	H	13.207498	7.043897	-24.162361	H	1	YLD124.LOD1	0.099228
	8676	N	6.795467	5.533753	-20.496957	N	1	YLD124.LOD1	-0.454587
	8677	N	8.784757	5.257123	-24.411623	N	1	YLD124.LOD1	-0.481156
	8678	H	14.314823	10.703351	-21.002400	H	1	YLD124.LOD1	0.111202
	8679	C	14.362480	10.036245	-23.055330	C	1	YLD124.LOD1	-0.106678
	8680	H	14.251835	9.097513	-24.992494	H	1	YLD124.LOD1	0.095951
	8681	H	14.818413	10.948357	-23.430190	H	1	YLD124.LOD1	0.103827
	8682	H	12.099617	7.164373	-17.888596	H	1	YLD124.LOD1	0.159396
	8683	H	16.418339	8.414215	-19.719306	H	1	YLD124.LOD1	-0.052081
	8684	H	19.338565	8.427190	-17.238499	H	1	YLD124.LOD1	-0.003289
	8685	C	20.232034	11.515135	-8.032514	C	1	YLD124.LOD1	0.198954
	8686	C	22.422068	11.974777	-8.927496	C	1	YLD124.LOD1	0.115128
	8687	C	22.694813	13.361354	-9.127953	C	1	YLD124.LOD1	0.306486
	8688	C	19.251833	12.548256	-7.946039	C	1	YLD124.LOD1	0.28632
	8689	O	18.392300	12.543300	-8.983290	O	1	YLD124.LOD1	-0.606883
	8690	O	21.911200	14.159000	-8.376540	O	1	YLD124.LOD1	-0.600198
	8691	C	21.951968	16.792951	-9.417636	C	1	YLD124.LOD1	0.267162
	8692	C	15.879894	13.571927	-7.764122	C	1	YLD124.LOD1	0.369124
	8693	C	14.344646	13.403435	-7.807671	C	1	YLD124.LOD1	-0.324271
	8694	H	14.029338	12.399807	-7.496043	H	1	YLD124.LOD1	0.053925
	8695	H	13.864035	14.120031	-7.126194	H	1	YLD124.LOD1	0.070181
	8696	H	13.936940	13.586825	-8.809154	H	1	YLD124.LOD1	0.052098
	8697	C	22.190054	18.281405	-9.079612	C	1	YLD124.LOD1	-0.316887
	8698	H	22.041135	18.902048	-9.974769	H	1	YLD124.LOD1	0.07213
	8699	H	21.496260	18.648004	-8.312793	H	1	YLD124.LOD1	0.059956
	8700	H	23.211227	18.466747	-8.723927	H	1	YLD124.LOD1	0.057948
	8701	C	16.241289	15.014302	-8.180080	C	1	YLD124.LOD1	-0.260833
	8702	H	17.325164	15.179358	-8.173741	H	1	YLD124.LOD1	0.041714
	8703	H	15.874977	15.253939	-9.185378	H	1	YLD124.LOD1	0.041636
	8704	H	15.790139	15.738903	-7.486762	H	1	YLD124.LOD1	0.048242
	8705	C	16.364270	13.333849	-6.317395	C	1	YLD124.LOD1	-0.256632
	8706	H	15.870101	14.034394	-5.628611	H	1	YLD124.LOD1	0.046696
	8707	H	16.137960	12.320060	-5.964764	H	1	YLD124.LOD1	0.030906
	8708	H	17.444778	13.491842	-6.215769	H	1	YLD124.LOD1	0.051975
	8709	C	22.942154	16.360234	-10.520824	C	1	YLD124.LOD1	-0.203727
	8710	H	23.985552	16.498214	-10.211434	H	1	YLD124.LOD1	0.027457
	8711	H	22.809082	15.307322	-10.793057	H	1	YLD124.LOD1	0.031775
	8712	H	22.789123	16.962505	-11.427895	H	1	YLD124.LOD1	0.046776
	8713	C	20.509846	16.617723	-9.941460	C	1	YLD124.LOD1	-0.249027
	8714	H	19.764544	16.945655	-9.206284	H	1	YLD124.LOD1	0.037596
	8715	H	20.358064	17.219500	-10.849118	H	1	YLD124.LOD1	0.055765
	8716	H	20.295831	15.573240	-10.193783	H	1	YLD124.LOD1	0.04836
	8717	C	21.042136	16.164559	-6.502696	C	1	YLD124.LOD1	-0.409962
	8718	H	20.001156	16.103357	-6.839411	H	1	YLD124.LOD1	0.090944
	8719	H	21.152670	15.495602	-5.640428	H	1	YLD124.LOD1	0.090896
	8720	H	21.215913	17.185491	-6.141387	H	1	YLD124.LOD1	0.069902
	8721	C	23.926702	15.845477	-7.198733	C	1	YLD124.LOD1	-0.458602
	8722	H	24.074074	15.188615	-6.332693	H	1	YLD124.LOD1	0.097974
	8723	H	24.664730	15.564594	-7.958404	H	1	YLD124.LOD1	0.103309
	8724	H	24.157670	16.866430	-6.871076	H	1	YLD124.LOD1	0.085827
	8725	C	16.238828	12.686173	-10.718454	C	1	YLD124.LOD1	-0.493974
	8726	H	16.579652	13.676506	-11.039833	H	1	YLD124.LOD1	0.11158
	8727	H	16.691934	11.947685	-11.389845	H	1	YLD124.LOD1	0.113577
	8728	H	15.152662	12.642449	-10.859629	H	1	YLD124.LOD1	0.09477
	8729	C	16.300754	10.613070	-8.551488	C	1	YLD124.LOD1	-0.483575
	8730	H	16.792898	9.912714	-9.237300	H	1	YLD124.LOD1	0.116965
	8731	H	16.598194	10.344205	-7.531569	H	1	YLD124.LOD1	0.100121
	8732	H	15.220839	10.440578	-8.632051	H	1	YLD124.LOD1	0.088084
	8733	Si	16.717400	12.344100	-8.991280	Si	1	YLD124.LOD1	0.763339
	8734	Si	22.214600	15.730700	-7.842680	Si	1	YLD124.LOD1	0.748472
	8735	H	18.691290	12.493883	-7.001234	H	1	YLD124.LOD1	-0.009815
	8736	H	22.679922	11.793605	-7.880181	H	1	YLD124.LOD1	0.057511
	8737	H	23.752033	13.598788	-8.941364	H	1	YLD124.LOD1	-0.045737
	8738	H	22.496401	13.551899	-10.193387	H	1	YLD124.LOD1	-0.011652
	8739	H	23.108845	11.364793	-9.523640	H	1	YLD124.LOD1	0.023801
	8740	H	19.653623	10.585193	-8.034048	H	1	YLD124.LOD1	-0.001966
	8741	H	20.840217	11.496335	-7.123996	H	1	YLD124.LOD1	0.031172
	8742	H	19.815929	13.491173	-7.938767	H	1	YLD124.LOD1	-0.066029
	8743	C	17.371893	10.803459	-18.742111	C	1	YLD124.LOD1	-0.185058
	8744	H	18.133574	11.590541	-18.687988	H	1	YLD124.LOD1	0.04722
	8745	H	16.881108	10.881714	-19.719599	H	1	YLD124.LOD1	0.027573
	8746	H	16.620925	11.009663	-17.973150	H	1	YLD124.LOD1	0.00699
	8747	C	19.073703	9.209354	-19.662503	C	1	YLD124.LOD1	-0.347891
	8748	H	19.862668	9.968013	-19.592196	H	1	YLD124.LOD1	0.075067
	8749	H	19.547986	8.223349	-19.585049	H	1	YLD124.LOD1	0.071859
	8750	H	18.624951	9.288782	-20.660020	H	1	YLD124.LOD1	0.077505
	8751	C	21.338835	19.869966	3.976197	C	1	YLD124_chi.LOD1	-0.150166
	8752	C	20.568045	19.070254	3.185374	C	1	YLD124_chi.LOD1	-0.190723
	8753	H	19.484302	19.137665	3.267086	H	1	YLD124_chi.LOD1	0.123134
	8754	H	22.421050	19.779539	3.898821	H	1	YLD124_chi.LOD1	0.111619
	8755	N	19.736987	23.653224	7.935428	N	1	YLD124_chi.LOD1	-0.506176
	8756	C	20.115509	22.758804	6.948262	C	1	YLD124_chi.LOD1	0.404469
	8757	C	19.154787	22.069115	6.160193	C	1	YLD124_chi.LOD1	-0.281203
	8758	C	19.533961	21.142824	5.206467	C	1	YLD124_chi.LOD1	-0.112562
	8759	C	20.889348	20.839917	4.952466	C	1	YLD124_chi.LOD1	0.131862
	8760	C	21.839314	21.546515	5.718317	C	1	YLD124_chi.LOD1	-0.140167
	8761	C	21.478541	22.475721	6.679504	C	1	YLD124_chi.LOD1	-0.26473
	8762	H	18.097486	22.260730	6.293947	H	1	YLD124_chi.LOD1	0.177954
	8763	H	18.752784	20.644657	4.639806	H	1	YLD124_chi.LOD1	0.098859
	8764	H	22.897212	21.355587	5.550978	H	1	YLD124_chi.LOD1	0.103807
	8765	H	22.264644	22.984026	7.223808	H	1	YLD124_chi.LOD1	0.161189
	8766	C	21.048899	18.090037	2.250070	C	1	YLD124_chi.LOD1	0.100982
	8767	C	20.144665	17.306531	1.569501	C	1	YLD124_chi.LOD1	-0.303623
	8768	C	22.532617	17.881340	2.030685	C	1	YLD124_chi.LOD1	0.096207
	8769	H	19.082144	17.480366	1.732933	H	1	YLD124_chi.LOD1	0.124941
	8770	C	22.880238	17.204871	0.684033	C	1	YLD124_chi.LOD1	0.409462
	8771	H	23.060216	18.840608	2.093823	H	1	YLD124_chi.LOD1	-0.020765
	8772	C	21.979247	15.960292	0.506944	C	1	YLD124_chi.LOD1	-0.014279
	8773	H	22.259821	15.212266	1.264628	H	1	YLD124_chi.LOD1	-0.02177
	8774	C	20.504304	16.261606	0.667056	C	1	YLD124_chi.LOD1	0.179445
	8775	C	19.434626	15.630396	0.113367	C	1	YLD124_chi.LOD1	-0.27725
	8776	H	18.408459	15.929396	0.326512	H	1	YLD124_chi.LOD1	0.132087
	8777	C	19.606187	14.544982	-0.775298	C	1	YLD124_chi.LOD1	0.141075
	8778	C	18.547902	13.875806	-1.355629	C	1	YLD124_chi.LOD1	-0.327608
	8779	H	20.615313	14.216696	-0.995616	H	1	YLD124_chi.LOD1	-0.027316
	8780	C	18.621182	12.776953	-2.238951	C	1	YLD124_chi.LOD1	0.260653
	8781	C	17.534213	12.077551	-2.751178	C	1	YLD124_chi.LOD1	-0.287606
	8782	C	19.879456	12.118935	-2.811777	C	1	YLD124_chi.LOD1	-0.056548
	8783	C	18.008693	11.001691	-3.579596	C	1	YLD124_chi.LOD1	0.509074
	8784	C	16.185730	12.400719	-2.454931	C	1	YLD124_chi.LOD1	0.396907
	8785	O	19.363309	10.997072	-3.581153	O	1	YLD124_chi.LOD1	-0.366332
	8786	C	20.946998	11.545210	-1.820697	C	1	YLD124_chi.LOD1	0.253806
	8787	C	20.662171	12.998260	-3.945933	C	1	YLD124_chi.LOD1	0.598114
	8788	C	17.346794	10.032280	-4.300347	C	1	YLD124_chi.LOD1	-0.43234
	8789	N	15.113614	12.738743	-2.150236	N	1	YLD124_chi.LOD1	-0.430249
	8790	C	15.925118	9.951158	-4.344828	C	1	YLD124_chi.LOD1	0.437474
	8791	C	18.088261	9.061739	-5.037775	C	1	YLD124_chi.LOD1	0.49223
	8792	N	14.766736	9.847763	-4.408228	N	1	YLD124_chi.LOD1	-0.451871
	8793	N	18.680686	8.262193	-5.642583	N	1	YLD124_chi.LOD1	-0.482758
	8794	H	17.539557	14.200835	-1.105140	H	1	YLD124_chi.LOD1	0.157364
	8795	H	22.183760	15.502453	-0.466468	H	1	YLD124_chi.LOD1	0.040059
	8796	H	22.924909	17.267253	2.856335	H	1	YLD124_chi.LOD1	-0.024244
	8797	C	18.382862	24.006466	8.176896	C	1	YLD124_chi.LOD1	0.240322
	8798	C	20.652044	24.417570	8.727353	C	1	YLD124_chi.LOD1	0.113854
	8799	C	20.584672	25.842135	8.771388	C	1	YLD124_chi.LOD1	0.29958
	8800	C	17.803077	25.031716	7.378154	C	1	YLD124_chi.LOD1	0.285774
	8801	O	18.309700	25.037300	6.129330	O	1	YLD124_chi.LOD1	-0.61175
	8802	O	19.501700	26.309600	9.422650	O	1	YLD124_chi.LOD1	-0.599726
	8803	C	17.722612	27.642909	11.185554	C	1	YLD124_chi.LOD1	0.275329
	8804	C	16.416639	26.521606	4.407509	C	1	YLD124_chi.LOD1	0.358728
	8805	C	15.166030	26.420020	5.308660	C	1	YLD124_chi.LOD1	-0.337707
	8806	H	15.426016	26.390911	6.374141	H	1	YLD124_chi.LOD1	0.059176
	8807	H	14.515125	27.293168	5.157598	H	1	YLD124_chi.LOD1	0.075606
	8808	H	14.567022	25.528558	5.085404	H	1	YLD124_chi.LOD1	0.056098
	8809	C	17.605998	28.352252	12.552810	C	1	YLD124_chi.LOD1	-0.311529
	8810	H	16.606135	28.794942	12.667079	H	1	YLD124_chi.LOD1	0.071087
	8811	H	17.750597	27.660700	13.392268	H	1	YLD124_chi.LOD1	0.058721
	8812	H	18.333493	29.166424	12.660303	H	1	YLD124_chi.LOD1	0.056179
	8813	C	15.971378	26.610512	2.931536	C	1	YLD124_chi.LOD1	-0.279876
	8814	H	16.829627	26.664620	2.251277	H	1	YLD124_chi.LOD1	0.048405
	8815	H	15.364287	25.747510	2.633241	H	1	YLD124_chi.LOD1	0.047411
	8816	H	15.361310	27.510792	2.768698	H	1	YLD124_chi.LOD1	0.054899
	8817	C	17.189535	27.808033	4.771401	C	1	YLD124_chi.LOD1	-0.273001
	8818	H	16.543832	28.689567	4.647601	H	1	YLD124_chi.LOD1	0.0526
	8819	H	17.536203	27.805273	5.812293	H	1	YLD124_chi.LOD1	0.034813
	8820	H	18.063701	27.956971	4.126115	H	1	YLD124_chi.LOD1	0.061699
	8821	C	17.483074	28.671367	10.058874	C	1	YLD124_chi.LOD1	-0.202774
	8822	H	18.205236	29.496480	10.094574	H	1	YLD124_chi.LOD1	0.027959
	8823	H	17.551265	28.207694	9.068482	H	1	YLD124_chi.LOD1	0.030756
	8824	H	16.480183	29.112405	10.152722	H	1	YLD124_chi.LOD1	0.045471
	8825	C	16.644935	26.540710	11.093635	C	1	YLD124_chi.LOD1	-0.266625
	8826	H	16.746460	25.800232	11.896563	H	1	YLD124_chi.LOD1	0.041283
	8827	H	15.641155	26.980729	11.182052	H	1	YLD124_chi.LOD1	0.059445
	8828	H	16.692460	26.008640	10.137049	H	1	YLD124_chi.LOD1	0.054675
	8829	C	19.729405	25.465014	12.164655	C	1	YLD124_chi.LOD1	-0.410828
	8830	H	18.797798	24.923037	12.362419	H	1	YLD124_chi.LOD1	0.093855
	8831	H	20.452128	24.745739	11.760075	H	1	YLD124_chi.LOD1	0.090546
	8832	H	20.124837	25.810154	13.127678	H	1	YLD124_chi.LOD1	0.070213
	8833	C	20.800383	28.102143	11.262272	C	1	YLD124_chi.LOD1	-0.460074
	8834	H	20.798014	28.496175	12.285970	H	1	YLD124_chi.LOD1	0.099819
	8835	H	21.790683	27.672314	11.074996	H	1	YLD124_chi.LOD1	0.10243
	8836	H	20.676075	28.958947	10.589115	H	1	YLD124_chi.LOD1	0.086844
	8837	C	18.876451	24.908258	3.415424	C	1	YLD124_chi.LOD1	-0.477029
	8838	H	18.667835	24.186166	2.618407	H	1	YLD124_chi.LOD1	0.107463
	8839	H	19.004627	25.890115	2.945255	H	1	YLD124_chi.LOD1	0.106999
	8840	H	19.832401	24.632394	3.875942	H	1	YLD124_chi.LOD1	0.090486
	8841	C	16.530643	23.423374	4.543187	C	1	YLD124_chi.LOD1	-0.470103
	8842	H	16.873809	22.692829	5.285970	H	1	YLD124_chi.LOD1	0.112461
	8843	H	15.459378	23.587370	4.707198	H	1	YLD124_chi.LOD1	0.098066
	8844	H	16.640692	22.957277	3.556732	H	1	YLD124_chi.LOD1	0.083138
	8845	Si	17.522700	24.961600	4.639410	Si	1	YLD124_chi.LOD1	0.770043
	8846	Si	19.468400	26.867600	11.014400	Si	1	YLD124_chi.LOD1	0.73989
	8847	H	16.709210	24.927068	7.334489	H	1	YLD124_chi.LOD1	-0.017464
	8848	H	20.514251	24.118082	9.770199	H	1	YLD124_chi.LOD1	0.058354
	8849	H	21.492975	26.278619	9.210836	H	1	YLD124_chi.LOD1	-0.04034
	8850	H	20.543539	26.155783	7.717468	H	1	YLD124_chi.LOD1	-0.007901
	8851	H	21.661220	24.098441	8.446570	H	1	YLD124_chi.LOD1	0.028132
	8852	H	17.780168	23.107243	8.013637	H	1	YLD124_chi.LOD1	-0.011538
	8853	H	18.277643	24.257586	9.236198	H	1	YLD124_chi.LOD1	0.020652
	8854	H	18.020968	25.993520	7.862911	H	1	YLD124_chi.LOD1	-0.064856
	8855	C	22.629167	18.215478	-0.422957	C	1	YLD124_chi.LOD1	-0.299384
	8856	H	23.286379	19.086873	-0.316774	H	1	YLD124_chi.LOD1	0.066854
	8857	H	22.864572	17.736940	-1.381104	H	1	YLD124_chi.LOD1	0.072315
	8858	H	21.597678	18.577719	-0.474277	H	1	YLD124_chi.LOD1	0.027971
	8859	C	24.314953	16.789375	0.763200	C	1	YLD124_chi.LOD1	-0.427943
	8860	H	24.980067	17.649391	0.907588	H	1	YLD124_chi.LOD1	0.089807
	8861	H	24.509603	16.074517	1.572053	H	1	YLD124_chi.LOD1	0.091303
	8862	H	24.593601	16.309912	-0.182902	H	1	YLD124_chi.LOD1	0.089757
	8863	C	20.394065	10.834866	-0.744464	C	1	YLD124_chi.LOD1	-0.158763
	8864	C	22.339331	11.675887	-1.900893	C	1	YLD124_chi.LOD1	-0.147279
	8865	C	21.210854	10.273473	0.232911	C	1	YLD124_chi.LOD1	-0.065518
	8866	H	19.317029	10.717673	-0.671773	H	1	YLD124_chi.LOD1	0.080042
	8867	C	23.155334	11.118966	-0.913717	C	1	YLD124_chi.LOD1	-0.090746
	8868	H	22.803897	12.200788	-2.725345	H	1	YLD124_chi.LOD1	0.09871
	8869	C	22.597503	10.417235	0.153234	C	1	YLD124_chi.LOD1	-0.09866
	8870	H	20.762775	9.724433	1.056079	H	1	YLD124_chi.LOD1	0.104949
	8871	H	23.237089	9.981161	0.915524	H	1	YLD124_chi.LOD1	0.102095
	8872	H	24.233266	11.229830	-0.991056	H	1	YLD124_chi.LOD1	0.105434
	8873	F	21.694608	13.677332	-3.423421	F	1	YLD124_chi.LOD1	-0.19867
	8874	F	19.782190	13.894150	-4.421375	F	1	YLD124_chi.LOD1	-0.154403
	8875	F	21.126766	12.282401	-4.994470	F	1	YLD124_chi.LOD1	-0.186491
	8876	C	-7.699672	22.462568	11.282716	C	1	YLD124.LOD1	-0.158041
	8877	C	-7.983029	23.795078	11.226176	C	1	YLD124.LOD1	-0.174247
	8878	H	-7.182473	24.491526	10.981695	H	1	YLD124.LOD1	0.11023
	8879	H	-8.503666	21.775704	11.541894	H	1	YLD124.LOD1	0.116594
	8880	N	-2.741925	19.791601	10.358743	N	1	YLD124.LOD1	-0.477879
	8881	C	-3.943995	20.447346	10.565072	C	1	YLD124.LOD1	0.383639
	8882	C	-4.050439	21.859868	10.449607	C	1	YLD124.LOD1	-0.278193
	8883	C	-5.244766	22.515601	10.683576	C	1	YLD124.LOD1	-0.102205
	8884	C	-6.423242	21.824126	11.039119	C	1	YLD124.LOD1	0.126725
	8885	C	-6.314977	20.422019	11.142606	C	1	YLD124.LOD1	-0.148338
	8886	C	-5.127436	19.747912	10.912205	C	1	YLD124.LOD1	-0.248652
	8887	H	-3.188314	22.453297	10.172003	H	1	YLD124.LOD1	0.176041
	8888	H	-5.261368	23.596764	10.582361	H	1	YLD124.LOD1	0.098595
	8889	H	-7.197527	19.844272	11.408912	H	1	YLD124.LOD1	0.105176
	8890	H	-5.123681	18.668587	10.999701	H	1	YLD124.LOD1	0.157607
	8891	C	-9.261256	24.403092	11.476997	C	1	YLD124.LOD1	0.13089
	8892	C	-9.378199	25.773380	11.417074	C	1	YLD124.LOD1	-0.298955
	8893	C	-10.473160	23.564726	11.826039	C	1	YLD124.LOD1	0.000678
	8894	H	-8.497500	26.357366	11.153971	H	1	YLD124.LOD1	0.128536
	8895	C	-11.823483	24.259704	11.532432	C	1	YLD124.LOD1	0.312314
	8896	H	-10.439392	22.610735	11.286567	H	1	YLD124.LOD1	0.009572
	8897	C	-11.785545	25.687730	12.125298	C	1	YLD124.LOD1	0.132423
	8898	H	-11.751418	25.611461	13.223225	H	1	YLD124.LOD1	-0.011706
	8899	C	-10.584464	26.490804	11.673477	C	1	YLD124.LOD1	0.094029
	8900	C	-10.463007	27.836255	11.510623	C	1	YLD124.LOD1	-0.194272
	8901	H	-9.526243	28.302029	11.205027	H	1	YLD124.LOD1	0.118653
	8902	C	-11.559799	28.700883	11.725990	C	1	YLD124.LOD1	0.029031
	8903	C	-11.489177	30.066398	11.539339	C	1	YLD124.LOD1	-0.298661
	8904	H	-12.500527	28.265699	12.042383	H	1	YLD124.LOD1	0.063317
	8905	C	-12.540618	30.996268	11.690431	C	1	YLD124.LOD1	0.24754
	8906	C	-12.466398	32.355698	11.408131	C	1	YLD124.LOD1	-0.281071
	8907	C	-13.969583	30.722447	12.167882	C	1	YLD124.LOD1	-0.098074
	8908	C	-13.753704	32.957826	11.629632	C	1	YLD124.LOD1	0.526995
	8909	C	-11.288082	32.996406	10.948195	C	1	YLD124.LOD1	0.389724
	8910	O	-14.636551	32.005436	12.017180	O	1	YLD124.LOD1	-0.351072
	8911	C	-14.114627	30.431614	13.763131	C	1	YLD124.LOD1	0.617997
	8912	C	-14.826880	29.663401	11.400679	C	1	YLD124.LOD1	0.253109
	8913	C	-14.201501	34.253257	11.493991	C	1	YLD124.LOD1	-0.451385
	8914	N	-10.275970	33.431636	10.570381	N	1	YLD124.LOD1	-0.428829
	8915	F	-13.428586	31.392322	14.400441	F	1	YLD124.LOD1	-0.200469
	8916	F	-15.368115	30.433960	14.243758	F	1	YLD124.LOD1	-0.158364
	8917	F	-13.553536	29.243870	14.081755	F	1	YLD124.LOD1	-0.193377
	8918	C	-14.165601	29.147783	10.275996	C	1	YLD124.LOD1	-0.158716
	8919	C	-16.130579	29.232237	11.676637	C	1	YLD124.LOD1	-0.162688
	8920	C	-13.348850	35.315972	11.077582	C	1	YLD124.LOD1	0.447489
	8921	C	-15.564249	34.569386	11.774249	C	1	YLD124.LOD1	0.491336
	8922	H	-13.157499	29.478466	10.044497	H	1	YLD124.LOD1	0.085247
	8923	C	-14.787708	28.216979	9.449048	C	1	YLD124.LOD1	-0.074329
	8924	C	-16.748486	28.290724	10.849872	C	1	YLD124.LOD1	-0.055824
	8925	H	-16.679669	29.621258	12.524205	H	1	YLD124.LOD1	0.099228
	8926	N	-12.687517	36.213379	10.740172	N	1	YLD124.LOD1	-0.454587
	8927	N	-16.674389	34.841179	11.997285	N	1	YLD124.LOD1	-0.481156
	8928	H	-14.259733	27.832577	8.581153	H	1	YLD124.LOD1	0.111202
	8929	C	-16.082918	27.780875	9.736638	C	1	YLD124.LOD1	-0.106678
	8930	H	-17.760604	27.967708	11.076982	H	1	YLD124.LOD1	0.095951
	8931	H	-16.570204	27.053423	9.093436	H	1	YLD124.LOD1	0.103827
	8932	H	-10.540971	30.489181	11.211742	H	1	YLD124.LOD1	0.159396
	8933	H	-12.720235	26.203634	11.882495	H	1	YLD124.LOD1	-0.052081
	8934	H	-10.424427	23.307952	12.895698	H	1	YLD124.LOD1	-0.003289
	8935	C	-1.576629	20.469573	9.918568	C	1	YLD124.LOD1	0.198954
	8936	C	-2.605268	18.370469	10.411373	C	1	YLD124.LOD1	0.115128
	8937	C	-2.457512	17.610392	9.211246	C	1	YLD124.LOD1	0.306486
	8938	C	-1.477601	20.766917	8.530011	C	1	YLD124.LOD1	0.28632
	8939	O	-2.608220	20.422200	7.883840	O	1	YLD124.LOD1	-0.606883
	8940	O	-1.297240	17.848900	8.569480	O	1	YLD124.LOD1	-0.600198
	8941	C	-0.199471	15.559680	7.313561	C	1	YLD124.LOD1	0.267162
	8942	C	-4.904972	20.768087	6.023183	C	1	YLD124.LOD1	0.369124
	8943	C	-5.258781	20.832581	4.520541	C	1	YLD124.LOD1	-0.324271
	8944	H	-5.042910	19.889216	4.003566	H	1	YLD124.LOD1	0.053925
	8945	H	-6.331745	21.034707	4.390917	H	1	YLD124.LOD1	0.070181
	8946	H	-4.714705	21.631080	4.001692	H	1	YLD124.LOD1	0.052098
	8947	C	1.012463	14.602824	7.267889	C	1	YLD124.LOD1	-0.316887
	8948	H	0.857811	13.831430	6.499960	H	1	YLD124.LOD1	0.07213
	8949	H	1.943893	15.125961	7.017846	H	1	YLD124.LOD1	0.059956
	8950	H	1.165572	14.083159	8.221913	H	1	YLD124.LOD1	0.057948
	8951	C	-5.268567	22.114638	6.685506	C	1	YLD124.LOD1	-0.260833
	8952	H	-5.025439	22.120184	7.754583	H	1	YLD124.LOD1	0.041714
	8953	H	-4.739699	22.955071	6.220526	H	1	YLD124.LOD1	0.041636
	8954	H	-6.345877	22.312583	6.588067	H	1	YLD124.LOD1	0.048242
	8955	C	-5.738530	19.647300	6.681465	C	1	YLD124.LOD1	-0.256632
	8956	H	-6.812501	19.833870	6.535970	H	1	YLD124.LOD1	0.046696
	8957	H	-5.520830	18.661130	6.253201	H	1	YLD124.LOD1	0.030906
	8958	H	-5.566112	19.589715	7.763012	H	1	YLD124.LOD1	0.051975
	8959	C	-1.472209	14.748512	7.640486	C	1	YLD124.LOD1	-0.203727
	8960	H	-1.388561	14.225061	8.600926	H	1	YLD124.LOD1	0.027457
	8961	H	-2.359941	15.389235	7.683477	H	1	YLD124.LOD1	0.031775
	8962	H	-1.646898	13.985763	6.868072	H	1	YLD124.LOD1	0.046776
	8963	C	-0.370617	16.225376	5.930676	C	1	YLD124.LOD1	-0.249027
	8964	H	0.523358	16.787469	5.633422	H	1	YLD124.LOD1	0.037596
	8965	H	-0.546321	15.461968	5.159086	H	1	YLD124.LOD1	0.055765
	8966	H	-1.221353	16.915651	5.917140	H	1	YLD124.LOD1	0.04836
	8967	C	1.568974	17.926048	8.309575	C	1	YLD124.LOD1	-0.409962
	8968	H	1.519141	18.383567	7.315114	H	1	YLD124.LOD1	0.090944
	8969	H	1.675803	18.734855	9.042818	H	1	YLD124.LOD1	0.090896
	8970	H	2.487132	17.327775	8.355393	H	1	YLD124.LOD1	0.069902
	8971	C	0.246906	16.179285	10.336352	C	1	YLD124.LOD1	-0.458602
	8972	H	0.356765	16.961273	11.097691	H	1	YLD124.LOD1	0.097974
	8973	H	-0.629792	15.577867	10.601643	H	1	YLD124.LOD1	0.103309
	8974	H	1.129578	15.532360	10.410032	H	1	YLD124.LOD1	0.085827
	8975	C	-2.021830	21.828956	5.571686	C	1	YLD124.LOD1	-0.493974
	8976	H	-2.214832	22.764969	6.107256	H	1	YLD124.LOD1	0.11158
	8977	H	-0.953153	21.606545	5.671183	H	1	YLD124.LOD1	0.113577
	8978	H	-2.228697	22.001034	4.509051	H	1	YLD124.LOD1	0.09477
	8979	C	-2.528623	18.874565	5.457816	C	1	YLD124.LOD1	-0.483575
	8980	H	-1.457685	18.686563	5.602003	H	1	YLD124.LOD1	0.116965
	8981	H	-3.074170	18.009914	5.852466	H	1	YLD124.LOD1	0.100121
	8982	H	-2.709094	18.907873	4.376714	H	1	YLD124.LOD1	0.088084
	8983	Si	-3.016240	20.456400	6.247520	Si	1	YLD124.LOD1	0.763339
	8984	Si	0.093081	16.896700	8.656860	Si	1	YLD124.LOD1	0.748472
	8985	H	-1.283305	21.840186	8.388014	H	1	YLD124.LOD1	-0.009815
	8986	H	-1.701208	18.140876	10.982461	H	1	YLD124.LOD1	0.057511
	8987	H	-2.561719	16.532149	9.399495	H	1	YLD124.LOD1	-0.045737
	8988	H	-3.299067	17.917087	8.572070	H	1	YLD124.LOD1	-0.011652
	8989	H	-3.446110	17.986366	10.998382	H	1	YLD124.LOD1	0.023801
	8990	H	-1.515570	21.411624	10.473694	H	1	YLD124.LOD1	-0.001966
	8991	H	-0.704338	19.881257	10.216288	H	1	YLD124.LOD1	0.031172
	8992	H	-0.626304	20.220124	8.101452	H	1	YLD124.LOD1	-0.066029
	8993	C	-12.006007	24.308466	10.019485	C	1	YLD124.LOD1	-0.185058
	8994	H	-12.063249	23.297631	9.598149	H	1	YLD124.LOD1	0.04722
	8995	H	-12.956231	24.812453	9.806062	H	1	YLD124.LOD1	0.027573
	8996	H	-11.214632	24.848353	9.490314	H	1	YLD124.LOD1	0.00699
	8997	C	-12.886297	23.455077	12.206095	C	1	YLD124.LOD1	-0.347891
	8998	H	-12.926633	22.428987	11.820757	H	1	YLD124.LOD1	0.075067
	8999	H	-12.753642	23.400512	13.293558	H	1	YLD124.LOD1	0.071859
	9000	H	-13.859001	23.921856	12.009390	H	1	YLD124.LOD1	0.077505
	9001	C	24.355983	29.619006	18.357993	C	1	YLD124_chi.LOD1	-0.150166
	9002	C	24.116355	29.727021	19.695890	C	1	YLD124_chi.LOD1	-0.190723
	9003	H	23.979560	28.818597	20.280503	H	1	YLD124_chi.LOD1	0.123134
	9004	H	24.471964	30.535035	17.781112	H	1	YLD124_chi.LOD1	0.111619
	9005	N	24.681030	24.935508	15.115516	N	1	YLD124_chi.LOD1	-0.506176
	9006	C	24.635447	26.064436	15.916270	C	1	YLD124_chi.LOD1	0.404469
	9007	C	24.455575	25.972764	17.323023	C	1	YLD124_chi.LOD1	-0.281203
	9008	C	24.364742	27.102672	18.114503	C	1	YLD124_chi.LOD1	-0.112562
	9009	C	24.458059	28.404639	17.576433	C	1	YLD124_chi.LOD1	0.131862
	9010	C	24.663335	28.489607	16.183994	C	1	YLD124_chi.LOD1	-0.140167
	9011	C	24.754247	27.369471	15.374986	C	1	YLD124_chi.LOD1	-0.26473
	9012	H	24.387295	25.005259	17.804441	H	1	YLD124_chi.LOD1	0.177954
	9013	H	24.222027	26.967550	19.182625	H	1	YLD124_chi.LOD1	0.098859
	9014	H	24.752773	29.471585	15.724294	H	1	YLD124_chi.LOD1	0.103807
	9015	H	24.919186	27.513272	14.314460	H	1	YLD124_chi.LOD1	0.161189
	9016	C	23.985242	30.953043	20.435160	C	1	YLD124_chi.LOD1	0.100982
	9017	C	23.673651	30.902806	21.774967	C	1	YLD124_chi.LOD1	-0.303623
	9018	C	24.147430	32.296430	19.755373	C	1	YLD124_chi.LOD1	0.096207
	9019	H	23.572667	29.926805	22.247305	H	1	YLD124_chi.LOD1	0.124941
	9020	C	24.487893	33.453902	20.722982	C	1	YLD124_chi.LOD1	0.409462
	9021	H	24.925444	32.236014	18.984928	H	1	YLD124_chi.LOD1	-0.020765
	9022	C	23.508845	33.404623	21.919293	C	1	YLD124_chi.LOD1	-0.014279
	9023	H	22.497588	33.645407	21.556345	H	1	YLD124_chi.LOD1	-0.02177
	9024	C	23.456336	32.050513	22.594209	C	1	YLD124_chi.LOD1	0.179445
	9025	C	23.164743	31.747209	23.887266	C	1	YLD124_chi.LOD1	-0.27725
	9026	H	23.135723	30.720379	24.251452	H	1	YLD124_chi.LOD1	0.132087
	9027	C	22.883197	32.761565	24.830184	C	1	YLD124_chi.LOD1	0.141075
	9028	C	22.579709	32.495956	26.149992	C	1	YLD124_chi.LOD1	-0.327608
	9029	H	22.891552	33.791751	24.493588	H	1	YLD124_chi.LOD1	-0.027316
	9030	C	22.271760	33.437854	27.155526	C	1	YLD124_chi.LOD1	0.260653
	9031	C	21.899329	33.134874	28.460341	C	1	YLD124_chi.LOD1	-0.287606
	9032	C	22.270429	34.964549	27.039030	C	1	YLD124_chi.LOD1	-0.056548
	9033	C	21.627359	34.354574	29.172555	C	1	YLD124_chi.LOD1	0.509074
	9034	C	21.796873	31.810883	28.957490	C	1	YLD124_chi.LOD1	0.396907
	9035	O	21.798985	35.410319	28.341318	O	1	YLD124_chi.LOD1	-0.366332
	9036	C	21.353810	35.636877	25.962615	C	1	YLD124_chi.LOD1	0.253806
	9037	C	23.752378	35.647365	26.944420	C	1	YLD124_chi.LOD1	0.598114
	9038	C	21.226416	34.595810	30.468086	C	1	YLD124_chi.LOD1	-0.43234
	9039	N	21.736401	30.691241	29.272568	N	1	YLD124_chi.LOD1	-0.430249
	9040	C	21.007400	33.547225	31.407353	C	1	YLD124_chi.LOD1	0.437474
	9041	C	21.015343	35.935522	30.910963	C	1	YLD124_chi.LOD1	0.49223
	9042	N	20.816445	32.721670	32.206448	N	1	YLD124_chi.LOD1	-0.451871
	9043	N	20.837440	37.023740	31.285352	N	1	YLD124_chi.LOD1	-0.482758
	9044	H	22.550456	31.455014	26.467376	H	1	YLD124_chi.LOD1	0.157364
	9045	H	23.773234	34.190542	22.634418	H	1	YLD124_chi.LOD1	0.040059
	9046	H	23.213517	32.533123	19.222010	H	1	YLD124_chi.LOD1	-0.024244
	9047	C	24.635644	23.610182	15.625181	C	1	YLD124_chi.LOD1	0.240322
	9048	C	24.923331	24.988199	13.706760	C	1	YLD124_chi.LOD1	0.113854
	9049	C	26.257563	24.814339	13.244095	C	1	YLD124_chi.LOD1	0.29958
	9050	C	25.851891	22.921669	15.902289	C	1	YLD124_chi.LOD1	0.285774
	9051	O	26.661800	23.605900	16.734200	O	1	YLD124_chi.LOD1	-0.61175
	9052	O	27.148100	25.070400	14.222300	O	1	YLD124_chi.LOD1	-0.599726
	9053	C	29.908536	24.405312	14.286893	C	1	YLD124_chi.LOD1	0.275329
	9054	C	28.346819	21.800106	18.377674	C	1	YLD124_chi.LOD1	0.358728
	9055	C	28.964794	21.589272	16.977648	C	1	YLD124_chi.LOD1	-0.337707
	9056	H	29.532769	22.465388	16.640729	H	1	YLD124_chi.LOD1	0.059176
	9057	H	29.660446	20.737954	16.992063	H	1	YLD124_chi.LOD1	0.075606
	9058	H	28.203613	21.371133	16.218451	H	1	YLD124_chi.LOD1	0.056098
	9059	C	30.876281	24.721068	15.448755	C	1	YLD124_chi.LOD1	-0.311529
	9060	H	31.610973	23.911038	15.562048	H	1	YLD124_chi.LOD1	0.071087
	9061	H	31.440202	25.646752	15.278615	H	1	YLD124_chi.LOD1	0.058721
	9062	H	30.353368	24.818858	16.408275	H	1	YLD124_chi.LOD1	0.056179
	9063	C	27.610286	20.511961	18.805297	C	1	YLD124_chi.LOD1	-0.279876
	9064	H	27.137396	20.622189	19.788403	H	1	YLD124_chi.LOD1	0.048405
	9065	H	26.828786	20.229275	18.089995	H	1	YLD124_chi.LOD1	0.047411
	9066	H	28.315129	19.670282	18.868345	H	1	YLD124_chi.LOD1	0.054899
	9067	C	29.482151	22.081016	19.386034	C	1	YLD124_chi.LOD1	-0.273001
	9068	H	30.199814	21.247808	19.395147	H	1	YLD124_chi.LOD1	0.0526
	9069	H	30.044956	22.989286	19.137162	H	1	YLD124_chi.LOD1	0.034813
	9070	H	29.103298	22.189882	20.409442	H	1	YLD124_chi.LOD1	0.061699
	9071	C	29.172773	23.080976	14.585726	C	1	YLD124_chi.LOD1	-0.202774
	9072	H	28.601892	23.129480	15.521325	H	1	YLD124_chi.LOD1	0.027959
	9073	H	28.477795	22.815421	13.781359	H	1	YLD124_chi.LOD1	0.030756
	9074	H	29.895396	22.258465	14.687727	H	1	YLD124_chi.LOD1	0.045471
	9075	C	30.719334	24.243381	12.982644	C	1	YLD124_chi.LOD1	-0.266625
	9076	H	31.293062	25.146800	12.741852	H	1	YLD124_chi.LOD1	0.041283
	9077	H	31.438869	23.417802	13.081128	H	1	YLD124_chi.LOD1	0.059445
	9078	H	30.070036	24.019469	12.129012	H	1	YLD124_chi.LOD1	0.054675
	9079	C	28.781549	26.664932	12.470262	C	1	YLD124_chi.LOD1	-0.410828
	9080	H	29.352970	27.597688	12.534953	H	1	YLD124_chi.LOD1	0.093855
	9081	H	29.279773	26.021023	11.735060	H	1	YLD124_chi.LOD1	0.090546
	9082	H	27.791687	26.908112	12.065371	H	1	YLD124_chi.LOD1	0.070213
	9083	C	28.800318	27.091180	15.427116	C	1	YLD124_chi.LOD1	-0.460074
	9084	H	29.235870	26.661508	16.337556	H	1	YLD124_chi.LOD1	0.099819
	9085	H	29.435156	27.929728	15.119977	H	1	YLD124_chi.LOD1	0.10243
	9086	H	27.820064	27.498536	15.702562	H	1	YLD124_chi.LOD1	0.086844
	9087	C	27.856883	24.800542	18.933789	C	1	YLD124_chi.LOD1	-0.477029
	9088	H	28.158429	25.450235	18.104848	H	1	YLD124_chi.LOD1	0.107463
	9089	H	27.147449	25.362826	19.551907	H	1	YLD124_chi.LOD1	0.106999
	9090	H	28.745563	24.601757	19.544322	H	1	YLD124_chi.LOD1	0.090486
	9091	C	25.582373	22.888358	19.304079	C	1	YLD124_chi.LOD1	-0.470103
	9092	H	25.601362	21.854814	19.670976	H	1	YLD124_chi.LOD1	0.112461
	9093	H	25.454135	23.547320	20.170524	H	1	YLD124_chi.LOD1	0.098066
	9094	H	24.686509	22.993490	18.680519	H	1	YLD124_chi.LOD1	0.083138
	9095	Si	27.089200	23.258500	18.328500	Si	1	YLD124_chi.LOD1	0.770043
	9096	Si	28.646000	25.836800	14.099500	Si	1	YLD124_chi.LOD1	0.73989
	9097	H	25.659646	21.919540	16.312390	H	1	YLD124_chi.LOD1	-0.017464
	9098	H	24.276541	24.248934	13.225764	H	1	YLD124_chi.LOD1	0.058354
	9099	H	26.377209	23.776263	12.902439	H	1	YLD124_chi.LOD1	-0.04034
	9100	H	26.457684	25.470768	12.383940	H	1	YLD124_chi.LOD1	-0.007901
	9101	H	24.583696	25.968407	13.356104	H	1	YLD124_chi.LOD1	0.028132
	9102	H	24.108974	23.654554	16.583902	H	1	YLD124_chi.LOD1	-0.011538
	9103	H	24.008654	23.011067	14.958698	H	1	YLD124_chi.LOD1	0.020652
	9104	H	26.354362	22.788475	14.934138	H	1	YLD124_chi.LOD1	-0.064856
	9105	C	25.921625	33.263669	21.189974	C	1	YLD124_chi.LOD1	-0.299384
	9106	H	26.621394	33.326267	20.347991	H	1	YLD124_chi.LOD1	0.066854
	9107	H	26.164493	34.076666	21.884604	H	1	YLD124_chi.LOD1	0.072315
	9108	H	26.103059	32.316279	21.707037	H	1	YLD124_chi.LOD1	0.027971
	9109	C	24.299781	34.727498	19.961381	C	1	YLD124_chi.LOD1	-0.427943
	9110	H	24.968314	34.785203	19.093864	H	1	YLD124_chi.LOD1	0.089807
	9111	H	23.272057	34.864326	19.603306	H	1	YLD124_chi.LOD1	0.091303
	9112	H	24.540122	35.569397	20.621745	H	1	YLD124_chi.LOD1	0.089757
	9113	C	20.069875	35.076456	25.884897	C	1	YLD124_chi.LOD1	-0.158763
	9114	C	21.683992	36.692917	25.103628	C	1	YLD124_chi.LOD1	-0.147279
	9115	C	19.138893	35.554009	24.966864	C	1	YLD124_chi.LOD1	-0.065518
	9116	H	19.795372	34.262462	26.549041	H	1	YLD124_chi.LOD1	0.080042
	9117	C	20.750404	37.163611	24.177669	C	1	YLD124_chi.LOD1	-0.090746
	9118	H	22.657794	37.162998	25.146022	H	1	YLD124_chi.LOD1	0.09871
	9119	C	19.478241	36.599359	24.105529	C	1	YLD124_chi.LOD1	-0.09866
	9120	H	18.149156	35.108454	24.925326	H	1	YLD124_chi.LOD1	0.104949
	9121	H	18.753848	36.972974	23.387208	H	1	YLD124_chi.LOD1	0.102095
	9122	H	21.022927	37.983211	23.518732	H	1	YLD124_chi.LOD1	0.105434
	9123	F	24.511320	35.062787	27.883759	F	1	YLD124_chi.LOD1	-0.19867
	9124	F	23.796307	36.973539	27.150243	F	1	YLD124_chi.LOD1	-0.154403
	9125	F	24.318813	35.399217	25.742211	F	1	YLD124_chi.LOD1	-0.186491
	9126	C	-29.050553	-15.646883	5.737880	C	2	YLD124_chi.LOD1	-0.150166
	9127	C	-29.079627	-15.994514	7.055972	C	2	YLD124_chi.LOD1	-0.190723
	9128	H	-28.689492	-16.967111	7.351890	H	2	YLD124_chi.LOD1	0.123134
	9129	H	-29.461022	-14.679760	5.452326	H	2	YLD124_chi.LOD1	0.111619
	9130	N	-27.210065	-18.653384	1.251454	N	2	YLD124_chi.LOD1	-0.506176
	9131	C	-27.621712	-17.917553	2.350027	C	2	YLD124_chi.LOD1	0.404469
	9132	C	-27.496583	-18.421338	3.672999	C	2	YLD124_chi.LOD1	-0.281203
	9133	C	-27.949898	-17.704213	4.764612	C	2	YLD124_chi.LOD1	-0.112562
	9134	C	-28.547601	-16.432165	4.630490	C	2	YLD124_chi.LOD1	0.131862
	9135	C	-28.645000	-15.925264	3.318313	C	2	YLD124_chi.LOD1	-0.140167
	9136	C	-28.199030	-16.629880	2.212831	C	2	YLD124_chi.LOD1	-0.26473
	9137	H	-27.037496	-19.385812	3.850537	H	2	YLD124_chi.LOD1	0.177954
	9138	H	-27.830724	-18.144892	5.750062	H	2	YLD124_chi.LOD1	0.098859
	9139	H	-29.088356	-14.943662	3.165023	H	2	YLD124_chi.LOD1	0.103807
	9140	H	-28.301349	-16.173031	1.236400	H	2	YLD124_chi.LOD1	0.161189
	9141	C	-29.620524	-15.203162	8.127435	C	2	YLD124_chi.LOD1	0.100982
	9142	C	-29.640938	-15.719231	9.403347	C	2	YLD124_chi.LOD1	-0.303623
	9143	C	-30.200894	-13.828821	7.867700	C	2	YLD124_chi.LOD1	0.096207
	9144	H	-29.208223	-16.704407	9.570876	H	2	YLD124_chi.LOD1	0.124941
	9145	C	-30.258649	-12.923509	9.120297	C	2	YLD124_chi.LOD1	0.409462
	9146	H	-29.624360	-13.319168	7.086416	H	2	YLD124_chi.LOD1	-0.020765
	9147	C	-30.888741	-13.725254	10.283186	C	2	YLD124_chi.LOD1	-0.014279
	9148	H	-31.945354	-13.921229	10.043370	H	2	YLD124_chi.LOD1	-0.02177
	9149	C	-30.208302	-15.054678	10.531212	C	2	YLD124_chi.LOD1	0.179445
	9150	C	-30.105041	-15.763055	11.687261	C	2	YLD124_chi.LOD1	-0.27725
	9151	H	-29.604928	-16.730297	11.733976	H	2	YLD124_chi.LOD1	0.132087
	9152	C	-30.647310	-15.271669	12.896295	C	2	YLD124_chi.LOD1	0.141075
	9153	C	-30.566935	-15.960497	14.089443	C	2	YLD124_chi.LOD1	-0.327608
	9154	H	-31.162303	-14.318211	12.877653	H	2	YLD124_chi.LOD1	-0.027316
	9155	C	-31.088913	-15.558007	15.337901	C	2	YLD124_chi.LOD1	0.260653
	9156	C	-31.054645	-16.307875	16.508185	C	2	YLD124_chi.LOD1	-0.287606
	9157	C	-31.798533	-14.244020	15.675908	C	2	YLD124_chi.LOD1	-0.056548
	9158	C	-31.720706	-15.583091	17.556963	C	2	YLD124_chi.LOD1	0.509074
	9159	C	-30.462040	-17.592992	16.597065	C	2	YLD124_chi.LOD1	0.396907
	9160	O	-32.189076	-14.409984	17.067618	O	2	YLD124_chi.LOD1	-0.366332
	9161	C	-33.089309	-13.858411	14.878319	C	2	YLD124_chi.LOD1	0.253806
	9162	C	-30.827207	-12.930550	15.733119	C	2	YLD124_chi.LOD1	0.598114
	9163	C	-31.958421	-15.885849	18.879529	C	2	YLD124_chi.LOD1	-0.43234
	9164	N	-29.956047	-18.641708	16.570687	N	2	YLD124_chi.LOD1	-0.430249
	9165	C	-31.516257	-17.101835	19.475844	C	2	YLD124_chi.LOD1	0.437474
	9166	C	-32.671470	-14.965540	19.704219	C	2	YLD124_chi.LOD1	0.49223
	9167	N	-31.174138	-18.082504	20.002912	N	2	YLD124_chi.LOD1	-0.451871
	9168	N	-33.253801	-14.224638	20.388317	N	2	YLD124_chi.LOD1	-0.482758
	9169	H	-30.068692	-16.928432	14.087316	H	2	YLD124_chi.LOD1	0.157364
	9170	H	-30.888891	-13.108614	11.188023	H	2	YLD124_chi.LOD1	0.040059
	9171	H	-31.217153	-13.949840	7.461171	H	2	YLD124_chi.LOD1	-0.024244
	9172	C	-26.565730	-19.913710	1.365382	C	2	YLD124_chi.LOD1	0.240322
	9173	C	-27.263113	-18.152296	-0.087287	C	2	YLD124_chi.LOD1	0.113854
	9174	C	-26.098920	-17.648316	-0.743434	C	2	YLD124_chi.LOD1	0.29958
	9175	C	-25.156939	-19.923633	1.562393	C	2	YLD124_chi.LOD1	0.285774
	9176	O	-24.721500	-18.742900	2.044580	O	2	YLD124_chi.LOD1	-0.61175
	9177	O	-25.322900	-18.595500	-1.305800	O	2	YLD124_chi.LOD1	-0.599726
	9178	C	-24.012125	-19.679395	-3.599459	C	2	YLD124_chi.LOD1	0.275329
	9179	C	-23.278301	-16.449148	3.230910	C	2	YLD124_chi.LOD1	0.358728
	9180	C	-22.902085	-15.767431	1.896691	C	2	YLD124_chi.LOD1	-0.337707
	9181	H	-23.659245	-15.933360	1.120247	H	2	YLD124_chi.LOD1	0.059176
	9182	H	-22.813107	-14.680384	2.035599	H	2	YLD124_chi.LOD1	0.075606
	9183	H	-21.939879	-16.122851	1.507854	H	2	YLD124_chi.LOD1	0.056098
	9184	C	-23.071967	-18.499440	-3.267850	C	2	YLD124_chi.LOD1	-0.311529
	9185	H	-22.101380	-18.635408	-3.766077	H	2	YLD124_chi.LOD1	0.071087
	9186	H	-23.477358	-17.538217	-3.607782	H	2	YLD124_chi.LOD1	0.058721
	9187	H	-22.873643	-18.417733	-2.191898	H	2	YLD124_chi.LOD1	0.056179
	9188	C	-22.196658	-16.129323	4.285624	C	2	YLD124_chi.LOD1	-0.279876
	9189	H	-22.412446	-16.610421	5.247005	H	2	YLD124_chi.LOD1	0.048405
	9190	H	-21.200915	-16.458094	3.965132	H	2	YLD124_chi.LOD1	0.047411
	9191	H	-22.141582	-15.045278	4.461736	H	2	YLD124_chi.LOD1	0.054899
	9192	C	-24.629342	-15.880746	3.717005	C	2	YLD124_chi.LOD1	-0.273001
	9193	H	-24.563259	-14.789776	3.838564	H	2	YLD124_chi.LOD1	0.0526
	9194	H	-25.443337	-16.078012	3.008387	H	2	YLD124_chi.LOD1	0.034813
	9195	H	-24.921970	-16.295170	4.689304	H	2	YLD124_chi.LOD1	0.061699
	9196	C	-23.364634	-20.994976	-3.115192	C	2	YLD124_chi.LOD1	-0.202774
	9197	H	-23.172318	-20.985722	-2.035131	H	2	YLD124_chi.LOD1	0.027959
	9198	H	-23.997875	-21.861349	-3.336379	H	2	YLD124_chi.LOD1	0.030756
	9199	H	-22.398433	-21.150960	-3.616429	H	2	YLD124_chi.LOD1	0.045471
	9200	C	-24.211052	-19.753634	-5.129032	C	2	YLD124_chi.LOD1	-0.266625
	9201	H	-24.636087	-18.826370	-5.532562	H	2	YLD124_chi.LOD1	0.041283
	9202	H	-23.246404	-19.914851	-5.631500	H	2	YLD124_chi.LOD1	0.059445
	9203	H	-24.875117	-20.578538	-5.410037	H	2	YLD124_chi.LOD1	0.054675
	9204	C	-26.512768	-21.007406	-2.329403	C	2	YLD124_chi.LOD1	-0.410828
	9205	H	-27.485598	-21.104347	-2.824322	H	2	YLD124_chi.LOD1	0.093855
	9206	H	-25.895889	-21.859431	-2.640662	H	2	YLD124_chi.LOD1	0.090546
	9207	H	-26.676937	-21.107499	-1.249620	H	2	YLD124_chi.LOD1	0.070213
	9208	C	-26.850272	-18.399116	-3.736814	C	2	YLD124_chi.LOD1	-0.460074
	9209	H	-27.583513	-17.879628	-3.107756	H	2	YLD124_chi.LOD1	0.099819
	9210	H	-26.316082	-17.639911	-4.318851	H	2	YLD124_chi.LOD1	0.10243
	9211	H	-27.416006	-19.021663	-4.440438	H	2	YLD124_chi.LOD1	0.086844
	9212	C	-23.677334	-19.221941	4.569218	C	2	YLD124_chi.LOD1	-0.477029
	9213	H	-24.739584	-19.453221	4.704526	H	2	YLD124_chi.LOD1	0.107463
	9214	H	-23.127716	-20.169966	4.595644	H	2	YLD124_chi.LOD1	0.106999
	9215	H	-23.352120	-18.624575	5.429107	H	2	YLD124_chi.LOD1	0.090486
	9216	C	-21.861197	-19.009825	2.193254	C	2	YLD124_chi.LOD1	-0.470103
	9217	H	-21.693612	-20.056353	2.475882	H	2	YLD124_chi.LOD1	0.112461
	9218	H	-21.890426	-18.960765	1.098657	H	2	YLD124_chi.LOD1	0.098066
	9219	H	-20.982083	-18.441958	2.520573	H	2	YLD124_chi.LOD1	0.083138
	9220	Si	-23.378100	-18.357700	2.988970	Si	2	YLD124_chi.LOD1	0.770043
	9221	Si	-25.701700	-19.414000	-2.731540	Si	2	YLD124_chi.LOD1	0.73989
	9222	H	-24.867435	-20.733807	2.247382	H	2	YLD124_chi.LOD1	-0.017464
	9223	H	-27.583964	-18.969022	-0.740143	H	2	YLD124_chi.LOD1	0.058354
	9224	H	-26.360256	-16.893155	-1.498471	H	2	YLD124_chi.LOD1	-0.04034
	9225	H	-25.537147	-17.138476	0.053616	H	2	YLD124_chi.LOD1	-0.007901
	9226	H	-28.059220	-17.401149	-0.120606	H	2	YLD124_chi.LOD1	0.028132
	9227	H	-27.017292	-20.431560	2.217685	H	2	YLD124_chi.LOD1	-0.011538
	9228	H	-26.813508	-20.506683	0.480372	H	2	YLD124_chi.LOD1	0.020652
	9229	H	-24.672243	-20.122567	0.596459	H	2	YLD124_chi.LOD1	-0.064856
	9230	C	-28.836868	-12.506831	9.459328	C	2	YLD124_chi.LOD1	-0.299384
	9231	H	-28.396613	-11.913875	8.648706	H	2	YLD124_chi.LOD1	0.066854
	9232	H	-28.871594	-11.872784	10.353329	H	2	YLD124_chi.LOD1	0.072315
	9233	H	-28.162014	-13.342819	9.667939	H	2	YLD124_chi.LOD1	0.027971
	9234	C	-31.128341	-11.756780	8.774356	C	2	YLD124_chi.LOD1	-0.427943
	9235	H	-30.717620	-11.176805	7.939019	H	2	YLD124_chi.LOD1	0.089807
	9236	H	-32.151662	-12.049449	8.509189	H	2	YLD124_chi.LOD1	0.091303
	9237	H	-31.184192	-11.091312	9.644226	H	2	YLD124_chi.LOD1	0.089757
	9238	C	-33.974528	-14.929656	14.684868	C	2	YLD124_chi.LOD1	-0.158763
	9239	C	-33.423688	-12.602055	14.356918	C	2	YLD124_chi.LOD1	-0.147279
	9240	C	-35.162830	-14.753325	13.981724	C	2	YLD124_chi.LOD1	-0.065518
	9241	H	-33.733956	-15.908169	15.089422	H	2	YLD124_chi.LOD1	0.080042
	9242	C	-34.612540	-12.430842	13.644277	C	2	YLD124_chi.LOD1	-0.090746
	9243	H	-32.775438	-11.747624	14.501083	H	2	YLD124_chi.LOD1	0.09871
	9244	C	-35.484763	-13.500999	13.454608	C	2	YLD124_chi.LOD1	-0.09866
	9245	H	-35.835951	-15.594963	13.846160	H	2	YLD124_chi.LOD1	0.104949
	9246	H	-36.410980	-13.361115	12.904270	H	2	YLD124_chi.LOD1	0.102095
	9247	H	-34.856481	-11.449817	13.246417	H	2	YLD124_chi.LOD1	0.105434
	9248	F	-30.900421	-12.203818	14.607693	F	2	YLD124_chi.LOD1	-0.19867
	9249	F	-29.567761	-13.382033	15.847084	F	2	YLD124_chi.LOD1	-0.154403
	9250	F	-31.062757	-12.102629	16.775613	F	2	YLD124_chi.LOD1	-0.186491
	9251	C	-19.342574	-25.599544	23.059209	C	1	YLD124.LOD1	-0.158041
	9252	C	-19.945043	-26.822024	23.018651	C	1	YLD124.LOD1	-0.174247
	9253	H	-20.923858	-26.908955	22.549543	H	1	YLD124.LOD1	0.11023
	9254	H	-18.370429	-25.520375	23.542975	H	1	YLD124.LOD1	0.116594
	9255	N	-21.197597	-20.600120	21.026551	N	1	YLD124.LOD1	-0.477879
	9256	C	-20.748902	-21.820869	21.501937	C	1	YLD124.LOD1	0.383639
	9257	C	-21.520668	-23.005357	21.356177	C	1	YLD124.LOD1	-0.278193
	9258	C	-21.083985	-24.217922	21.856315	C	1	YLD124.LOD1	-0.102205
	9259	C	-19.849476	-24.351613	22.528229	C	1	YLD124.LOD1	0.126725
	9260	C	-19.082859	-23.175657	22.661502	C	1	YLD124.LOD1	-0.148338
	9261	C	-19.503833	-21.952413	22.167324	C	1	YLD124.LOD1	-0.248652
	9262	H	-22.474266	-22.978256	20.843926	H	1	YLD124.LOD1	0.176041
	9263	H	-21.720523	-25.086565	21.715918	H	1	YLD124.LOD1	0.098595
	9264	H	-18.121135	-23.228901	23.167326	H	1	YLD124.LOD1	0.105176
	9265	H	-18.855713	-21.094758	22.297637	H	1	YLD124.LOD1	0.157607
	9266	C	-19.419509	-28.046344	23.558384	C	1	YLD124.LOD1	0.13089
	9267	C	-20.169621	-29.197262	23.470788	C	1	YLD124.LOD1	-0.298955
	9268	C	-18.067182	-28.086318	24.238835	C	1	YLD124.LOD1	0.000678
	9269	H	-21.134550	-29.149629	22.968258	H	1	YLD124.LOD1	0.128536
	9270	C	-17.419333	-29.490624	24.266897	C	1	YLD124.LOD1	0.312314
	9271	H	-17.378711	-27.386671	23.750193	H	1	YLD124.LOD1	0.009572
	9272	C	-18.468138	-30.510730	24.768475	C	1	YLD124.LOD1	0.132423
	9273	H	-18.692849	-30.293189	25.824224	H	1	YLD124.LOD1	-0.011706
	9274	C	-19.767339	-30.462577	23.992961	C	1	YLD124.LOD1	0.094029
	9275	C	-20.657863	-31.461557	23.746510	C	1	YLD124.LOD1	-0.194272
	9276	H	-21.581895	-31.292531	23.193829	H	1	YLD124.LOD1	0.118653
	9277	C	-20.420014	-32.780367	24.194936	C	1	YLD124.LOD1	0.029031
	9278	C	-21.279522	-33.828922	23.937578	C	1	YLD124.LOD1	-0.298661
	9279	H	-19.514436	-32.974397	24.757732	H	1	YLD124.LOD1	0.063317
	9280	C	-21.101825	-35.179127	24.309580	C	1	YLD124.LOD1	0.24754
	9281	C	-21.938781	-36.232667	23.959134	C	1	YLD124.LOD1	-0.281071
	9282	C	-19.966127	-35.777207	25.144665	C	1	YLD124.LOD1	-0.098074
	9283	C	-21.396194	-37.461582	24.473085	C	1	YLD124.LOD1	0.526995
	9284	C	-23.118190	-36.072383	23.188563	C	1	YLD124.LOD1	0.389724
	9285	O	-20.228704	-37.206762	25.112373	O	1	YLD124.LOD1	-0.351072
	9286	C	-20.034710	-35.438935	26.735757	C	1	YLD124.LOD1	0.617997
	9287	C	-18.492347	-35.567198	24.666122	C	1	YLD124.LOD1	0.253109
	9288	C	-21.834422	-38.765260	24.399317	C	1	YLD124.LOD1	-0.451385
	9289	N	-24.063598	-35.842500	22.548331	N	1	YLD124.LOD1	-0.428829
	9290	F	-21.289699	-35.692421	27.136411	F	1	YLD124.LOD1	-0.200469
	9291	F	-19.203041	-36.145612	27.517533	F	1	YLD124.LOD1	-0.158364
	9292	F	-19.789521	-34.127539	26.953017	F	1	YLD124.LOD1	-0.193377
	9293	C	-18.374526	-34.574317	23.682066	C	1	YLD124.LOD1	-0.158716
	9294	C	-17.351229	-36.287152	25.041891	C	1	YLD124.LOD1	-0.162688
	9295	C	-23.041309	-39.128423	23.735008	C	1	YLD124.LOD1	0.447489
	9296	C	-21.070699	-39.809115	25.001531	C	1	YLD124.LOD1	0.491336
	9297	H	-19.251848	-34.013153	23.374469	H	1	YLD124.LOD1	0.085247
	9298	C	-17.144495	-34.300092	23.091235	C	1	YLD124.LOD1	-0.074329
	9299	C	-16.116366	-36.002807	24.453625	C	1	YLD124.LOD1	-0.055824
	9300	H	-17.406140	-37.073175	25.783753	H	1	YLD124.LOD1	0.099228
	9301	N	-24.019599	-39.469127	23.202640	N	1	YLD124.LOD1	-0.454587
	9302	N	-20.456224	-40.671290	25.486403	N	1	YLD124.LOD1	-0.481156
	9303	H	-17.075183	-33.529719	22.328683	H	1	YLD124.LOD1	0.111202
	9304	C	-16.007545	-35.012233	23.479387	C	1	YLD124.LOD1	-0.106678
	9305	H	-15.241093	-36.571336	24.755244	H	1	YLD124.LOD1	0.095951
	9306	H	-15.046032	-34.799177	23.020646	H	1	YLD124.LOD1	0.103827
	9307	H	-22.180495	-33.622026	23.362598	H	1	YLD124.LOD1	0.159396
	9308	H	-18.032463	-31.514986	24.748150	H	1	YLD124.LOD1	-0.052081
	9309	H	-18.184364	-27.722170	25.271376	H	1	YLD124.LOD1	-0.003289
	9310	C	-22.391313	-20.454480	20.273486	C	1	YLD124.LOD1	0.198954
	9311	C	-20.415499	-19.408177	21.110869	C	1	YLD124.LOD1	0.115128
	9312	C	-19.578992	-18.995026	20.027484	C	1	YLD124.LOD1	0.306486
	9313	C	-22.314521	-20.550140	18.854233	C	1	YLD124.LOD1	0.28632
	9314	O	-21.369200	-21.428600	18.467800	O	1	YLD124.LOD1	-0.606883
	9315	O	-20.232600	-18.356800	19.037400	O	1	YLD124.LOD1	-0.600198
	9316	C	-18.388664	-16.441561	18.060242	C	1	YLD124.LOD1	0.267162
	9317	C	-19.621712	-23.362436	17.031232	C	1	YLD124.LOD1	0.369124
	9318	C	-19.639687	-24.418588	15.903627	C	1	YLD124.LOD1	-0.324271
	9319	H	-19.874383	-23.977364	14.926877	H	1	YLD124.LOD1	0.053925
	9320	H	-18.653478	-24.896460	15.814536	H	1	YLD124.LOD1	0.070181
	9321	H	-20.368561	-25.215379	16.095174	H	1	YLD124.LOD1	0.052098
	9322	C	-17.746855	-15.838720	16.790949	C	1	YLD124.LOD1	-0.316887
	9323	H	-17.025847	-15.055649	17.065951	H	1	YLD124.LOD1	0.07213
	9324	H	-17.201261	-16.589778	16.206145	H	1	YLD124.LOD1	0.059956
	9325	H	-18.490978	-15.375703	16.130984	H	1	YLD124.LOD1	0.057948
	9326	C	-19.250880	-24.051553	18.362275	C	1	YLD124.LOD1	-0.260833
	9327	H	-19.234994	-23.340846	19.196968	H	1	YLD124.LOD1	0.041714
	9328	H	-19.956630	-24.850196	18.619804	H	1	YLD124.LOD1	0.041636
	9329	H	-18.252476	-24.507426	18.294149	H	1	YLD124.LOD1	0.048242
	9330	C	-18.547562	-22.303201	16.701779	C	1	YLD124.LOD1	-0.256632
	9331	H	-17.562536	-22.779374	16.590538	H	1	YLD124.LOD1	0.046696
	9332	H	-18.758822	-21.774617	15.764067	H	1	YLD124.LOD1	0.030906
	9333	H	-18.453994	-21.553445	17.496700	H	1	YLD124.LOD1	0.051975
	9334	C	-19.109899	-15.322406	18.842577	C	1	YLD124.LOD1	-0.203727
	9335	H	-19.887608	-14.837385	18.239779	H	1	YLD124.LOD1	0.027457
	9336	H	-19.581850	-15.705928	19.753958	H	1	YLD124.LOD1	0.031775
	9337	H	-18.393937	-14.542393	19.139063	H	1	YLD124.LOD1	0.046776
	9338	C	-17.279498	-17.041660	18.951558	C	1	YLD124.LOD1	-0.249027
	9339	H	-16.710708	-17.820513	18.428714	H	1	YLD124.LOD1	0.037596
	9340	H	-16.564620	-16.260741	19.248427	H	1	YLD124.LOD1	0.055765
	9341	H	-17.690783	-17.482874	19.866210	H	1	YLD124.LOD1	0.04836
	9342	C	-18.842125	-19.188596	16.657511	C	1	YLD124.LOD1	-0.409962
	9343	H	-18.012366	-19.619040	17.229332	H	1	YLD124.LOD1	0.090944
	9344	H	-19.555339	-19.995203	16.447894	H	1	YLD124.LOD1	0.090896
	9345	H	-18.443172	-18.853844	15.692203	H	1	YLD124.LOD1	0.069902
	9346	C	-21.018948	-17.150140	16.543567	C	1	YLD124.LOD1	-0.458602
	9347	H	-21.753366	-17.931619	16.313062	H	1	YLD124.LOD1	0.097974
	9348	H	-21.547278	-16.337994	17.055393	H	1	YLD124.LOD1	0.103309
	9349	H	-20.654155	-16.759029	15.585962	H	1	YLD124.LOD1	0.085827
	9350	C	-22.622443	-23.779656	17.712149	C	1	YLD124.LOD1	-0.493974
	9351	H	-22.404736	-24.198641	18.700714	H	1	YLD124.LOD1	0.11158
	9352	H	-23.609538	-23.306060	17.764932	H	1	YLD124.LOD1	0.113577
	9353	H	-22.689864	-24.611877	17.001896	H	1	YLD124.LOD1	0.09477
	9354	C	-21.859931	-21.740620	15.648419	C	1	YLD124.LOD1	-0.483575
	9355	H	-22.842186	-21.264868	15.757404	H	1	YLD124.LOD1	0.116965
	9356	H	-21.152147	-20.970922	15.320396	H	1	YLD124.LOD1	0.100121
	9357	H	-21.943154	-22.473658	14.837131	H	1	YLD124.LOD1	0.088084
	9358	Si	-21.363100	-22.556900	17.213800	Si	1	YLD124.LOD1	0.763339
	9359	Si	-19.639600	-17.805300	17.557000	Si	1	YLD124.LOD1	0.748472
	9360	H	-23.284234	-20.836276	18.421099	H	1	YLD124.LOD1	-0.009815
	9361	H	-21.098228	-18.563364	21.238748	H	1	YLD124.LOD1	0.057511
	9362	H	-18.745190	-18.372270	20.382243	H	1	YLD124.LOD1	-0.045737
	9363	H	-19.150350	-19.931144	19.639190	H	1	YLD124.LOD1	-0.011652
	9364	H	-19.825381	-19.469211	22.031286	H	1	YLD124.LOD1	0.023801
	9365	H	-23.075683	-21.245956	20.596837	H	1	YLD124.LOD1	-0.001966
	9366	H	-22.859958	-19.508606	20.558688	H	1	YLD124.LOD1	0.031172
	9367	H	-22.067132	-19.550034	18.472215	H	1	YLD124.LOD1	-0.066029
	9368	C	-16.972925	-29.829033	22.848699	C	1	YLD124.LOD1	-0.185058
	9369	H	-16.207336	-29.125696	22.499736	H	1	YLD124.LOD1	0.04722
	9370	H	-16.524779	-30.829776	22.861218	H	1	YLD124.LOD1	0.027573
	9371	H	-17.783666	-29.834613	22.113551	H	1	YLD124.LOD1	0.00699
	9372	C	-16.272746	-29.425545	25.221755	C	1	YLD124.LOD1	-0.347891
	9373	H	-15.518451	-28.695463	24.903961	H	1	YLD124.LOD1	0.075067
	9374	H	-16.582564	-29.166173	26.241504	H	1	YLD124.LOD1	0.071859
	9375	H	-15.788359	-30.408806	25.257732	H	1	YLD124.LOD1	0.077505
	9376	C	24.973396	-18.161621	-31.180929	C	2	YLD124.LOD1	-0.158041
	9377	C	24.271615	-18.267368	-32.345142	C	2	YLD124.LOD1	-0.174247
	9378	H	23.650122	-19.147125	-32.504752	H	2	YLD124.LOD1	0.11023
	9379	H	25.602924	-17.285076	-31.036965	H	2	YLD124.LOD1	0.116594
	9380	N	25.164758	-21.754243	-26.751088	N	2	YLD124.LOD1	-0.477879
	9381	C	25.099033	-20.881103	-27.823867	C	2	YLD124.LOD1	0.383639
	9382	C	24.293082	-21.158869	-28.961044	C	2	YLD124.LOD1	-0.278193
	9383	C	24.250546	-20.299751	-30.043288	C	2	YLD124.LOD1	-0.102205
	9384	C	24.992853	-19.099278	-30.077916	C	2	YLD124.LOD1	0.126725
	9385	C	25.783106	-18.823211	-28.943181	C	2	YLD124.LOD1	-0.148338
	9386	C	25.838504	-19.671668	-27.850108	C	2	YLD124.LOD1	-0.248652
	9387	H	23.690695	-22.057847	-28.999137	H	2	YLD124.LOD1	0.176041
	9388	H	23.617843	-20.569199	-30.883834	H	2	YLD124.LOD1	0.098595
	9389	H	26.369356	-17.907025	-28.920393	H	2	YLD124.LOD1	0.105176
	9390	H	26.459434	-19.387455	-27.009702	H	2	YLD124.LOD1	0.157607
	9391	C	24.273891	-17.321118	-33.427299	C	2	YLD124.LOD1	0.13089
	9392	C	23.537816	-17.590844	-34.558844	C	2	YLD124.LOD1	-0.298955
	9393	C	25.087386	-16.045991	-33.351945	C	2	YLD124.LOD1	0.000678
	9394	H	22.951299	-18.507901	-34.588828	H	2	YLD124.LOD1	0.128536
	9395	C	24.583083	-14.922854	-34.288327	C	2	YLD124.LOD1	0.312314
	9396	H	25.103855	-15.669892	-32.322116	H	2	YLD124.LOD1	0.009572
	9397	C	24.367409	-15.514441	-35.701018	C	2	YLD124.LOD1	0.132423
	9398	H	25.347081	-15.796614	-36.117007	H	2	YLD124.LOD1	-0.011706
	9399	C	23.484233	-16.743930	-35.705745	C	2	YLD124.LOD1	0.094029
	9400	C	22.654634	-17.201543	-36.682470	C	2	YLD124.LOD1	-0.194272
	9401	H	22.087257	-18.126043	-36.576436	H	2	YLD124.LOD1	0.118653
	9402	C	22.483250	-16.487945	-37.890080	C	2	YLD124.LOD1	0.029031
	9403	C	21.626841	-16.898413	-38.891347	C	2	YLD124.LOD1	-0.298661
	9404	H	23.044725	-15.571225	-38.027302	H	2	YLD124.LOD1	0.063317
	9405	C	21.363866	-16.229532	-40.106442	C	2	YLD124.LOD1	0.24754
	9406	C	20.428063	-16.617849	-41.058670	C	2	YLD124.LOD1	-0.281071
	9407	C	22.018150	-14.947255	-40.628511	C	2	YLD124.LOD1	-0.098074
	9408	C	20.408799	-15.654236	-42.126310	C	2	YLD124.LOD1	0.526995
	9409	C	19.621724	-17.777711	-40.936140	C	2	YLD124.LOD1	0.389724
	9410	O	21.288799	-14.660471	-41.853020	O	2	YLD124.LOD1	-0.351072
	9411	C	23.546959	-15.125561	-41.158836	C	2	YLD124.LOD1	0.617997
	9412	C	21.957843	-13.660069	-39.742612	C	2	YLD124.LOD1	0.253109
	9413	C	19.669930	-15.577563	-43.286162	C	2	YLD124.LOD1	-0.451385
	9414	N	19.002172	-18.745255	-40.744955	N	2	YLD124.LOD1	-0.428829
	9415	F	23.558080	-16.193928	-41.970159	F	2	YLD124.LOD1	-0.200469
	9416	F	24.051314	-14.085609	-41.841746	F	2	YLD124.LOD1	-0.158364
	9417	F	24.380260	-15.383348	-40.126250	F	2	YLD124.LOD1	-0.193377
	9418	C	21.459348	-13.910448	-38.455415	C	2	YLD124.LOD1	-0.158716
	9419	C	22.266974	-12.342909	-40.104847	C	2	YLD124.LOD1	-0.162688
	9420	C	18.711541	-16.567850	-43.647542	C	2	YLD124.LOD1	0.447489
	9421	C	19.851409	-14.476738	-44.175439	C	2	YLD124.LOD1	0.491336
	9422	H	21.207586	-14.925390	-38.162629	H	2	YLD124.LOD1	0.085247
	9423	C	21.280296	-12.871367	-37.546840	C	2	YLD124.LOD1	-0.074329
	9424	C	22.094996	-11.303608	-39.187202	C	2	YLD124.LOD1	-0.055824
	9425	H	22.635882	-12.108022	-41.094767	H	2	YLD124.LOD1	0.099228
	9426	N	17.918788	-17.353322	-43.980892	N	2	YLD124.LOD1	-0.454587
	9427	N	19.987503	-13.582750	-44.909123	N	2	YLD124.LOD1	-0.481156
	9428	H	20.889828	-13.085880	-36.556242	H	2	YLD124.LOD1	0.111202
	9429	C	21.602674	-11.561707	-37.909226	C	2	YLD124.LOD1	-0.106678
	9430	H	22.338191	-10.287307	-39.484340	H	2	YLD124.LOD1	0.095951
	9431	H	21.465042	-10.749068	-37.201400	H	2	YLD124.LOD1	0.103827
	9432	H	21.061459	-17.815717	-38.736248	H	2	YLD124.LOD1	0.159396
	9433	H	23.966698	-14.737177	-36.359840	H	2	YLD124.LOD1	-0.052081
	9434	H	26.133000	-16.282920	-33.603012	H	2	YLD124.LOD1	-0.003289
	9435	C	24.376469	-22.929202	-26.635482	C	2	YLD124.LOD1	0.198954
	9436	C	25.933490	-21.448700	-25.587861	C	2	YLD124.LOD1	0.115128
	9437	C	25.435828	-20.433323	-24.722128	C	2	YLD124.LOD1	0.306486
	9438	C	23.353948	-23.052500	-25.644565	C	2	YLD124.LOD1	0.28632
	9439	O	23.794600	-23.450900	-24.435500	O	2	YLD124.LOD1	-0.606883
	9440	O	24.274600	-19.934200	-25.188400	O	2	YLD124.LOD1	-0.600198
	9441	C	21.887606	-18.546051	-25.819211	C	2	YLD124.LOD1	0.267162
	9442	C	24.197113	-23.152294	-21.501975	C	2	YLD124.LOD1	0.369124
	9443	C	23.453758	-23.257481	-20.151556	C	2	YLD124.LOD1	-0.324271
	9444	H	23.100636	-24.276875	-19.951703	H	2	YLD124.LOD1	0.053925
	9445	H	24.124304	-22.979337	-19.325776	H	2	YLD124.LOD1	0.070181
	9446	H	22.587001	-22.587220	-20.103542	H	2	YLD124.LOD1	0.052098
	9447	C	20.908733	-17.442832	-25.359694	C	2	YLD124.LOD1	-0.316887
	9448	H	20.082617	-17.345467	-26.078536	H	2	YLD124.LOD1	0.07213
	9449	H	20.462555	-17.665911	-24.382496	H	2	YLD124.LOD1	0.059956
	9450	H	21.394293	-16.461466	-25.290337	H	2	YLD124.LOD1	0.057948
	9451	C	24.691911	-21.702347	-21.694078	C	2	YLD124.LOD1	-0.260833
	9452	H	25.219077	-21.575977	-22.647071	H	2	YLD124.LOD1	0.041714
	9453	H	23.865384	-20.982149	-21.673983	H	2	YLD124.LOD1	0.041636
	9454	H	25.387568	-21.423647	-20.889305	H	2	YLD124.LOD1	0.048242
	9455	C	25.418763	-24.096173	-21.470646	C	2	YLD124.LOD1	-0.256632
	9456	H	26.081983	-23.835410	-20.633070	H	2	YLD124.LOD1	0.046696
	9457	H	25.129595	-25.146144	-21.339203	H	2	YLD124.LOD1	0.030906
	9458	H	26.015920	-24.024128	-22.387707	H	2	YLD124.LOD1	0.051975
	9459	C	22.449138	-18.176834	-27.209570	C	2	YLD124.LOD1	-0.203727
	9460	H	22.971618	-17.212313	-27.197076	H	2	YLD124.LOD1	0.027457
	9461	H	23.150934	-18.934152	-27.576169	H	2	YLD124.LOD1	0.031775
	9462	H	21.632340	-18.095249	-27.941082	H	2	YLD124.LOD1	0.046776
	9463	C	21.126298	-19.885428	-25.925480	C	2	YLD124.LOD1	-0.249027
	9464	H	20.675415	-20.177093	-24.968853	H	2	YLD124.LOD1	0.037596
	9465	H	20.310389	-19.803220	-26.657976	H	2	YLD124.LOD1	0.055765
	9466	H	21.784359	-20.699586	-26.248770	H	2	YLD124.LOD1	0.04836
	9467	C	22.725092	-19.176794	-22.883182	C	2	YLD124.LOD1	-0.409962
	9468	H	22.134519	-20.099388	-22.911553	H	2	YLD124.LOD1	0.090944
	9469	H	23.560806	-19.337994	-22.191211	H	2	YLD124.LOD1	0.090896
	9470	H	22.095122	-18.391241	-22.448338	H	2	YLD124.LOD1	0.069902
	9471	C	24.302458	-17.159843	-24.416506	C	2	YLD124.LOD1	-0.458602
	9472	H	25.148821	-17.283953	-23.729862	H	2	YLD124.LOD1	0.097974
	9473	H	24.704865	-16.850722	-25.387688	H	2	YLD124.LOD1	0.103309
	9474	H	23.693143	-16.333776	-24.029986	H	2	YLD124.LOD1	0.085827
	9475	C	21.616827	-22.423367	-23.067889	C	2	YLD124.LOD1	-0.493974
	9476	H	21.966593	-21.410793	-23.297154	H	2	YLD124.LOD1	0.11158
	9477	H	20.932681	-22.725169	-23.869323	H	2	YLD124.LOD1	0.113577
	9478	H	21.039616	-22.376802	-22.137160	H	2	YLD124.LOD1	0.09477
	9479	C	22.374013	-25.309188	-22.757450	C	2	YLD124.LOD1	-0.483575
	9480	H	21.712380	-25.571267	-23.592075	H	2	YLD124.LOD1	0.116965
	9481	H	23.170080	-26.061183	-22.715317	H	2	YLD124.LOD1	0.100121
	9482	H	21.786844	-25.404416	-21.836242	H	2	YLD124.LOD1	0.088084
	9483	Si	23.007400	-23.598900	-22.951100	Si	2	YLD124.LOD1	0.763339
	9484	Si	23.317500	-18.699700	-24.550500	Si	2	YLD124.LOD1	0.748472
	9485	H	22.922102	-22.043903	-25.566705	H	2	YLD124.LOD1	-0.009815
	9486	H	26.050057	-22.366854	-25.005122	H	2	YLD124.LOD1	0.057511
	9487	H	25.284058	-20.843268	-23.713259	H	2	YLD124.LOD1	-0.045737
	9488	H	26.176311	-19.623356	-24.641736	H	2	YLD124.LOD1	-0.011652
	9489	H	26.938072	-21.163627	-25.917527	H	2	YLD124.LOD1	0.023801
	9490	H	23.953894	-23.128261	-27.626017	H	2	YLD124.LOD1	-0.001966
	9491	H	25.048716	-23.763144	-26.415783	H	2	YLD124.LOD1	0.031172
	9492	H	22.555493	-23.725502	-25.986456	H	2	YLD124.LOD1	-0.066029
	9493	C	23.271497	-14.392462	-33.719613	C	2	YLD124.LOD1	-0.185058
	9494	H	23.424969	-13.945173	-32.730187	H	2	YLD124.LOD1	0.04722
	9495	H	22.903213	-13.604697	-34.387648	H	2	YLD124.LOD1	0.027573
	9496	H	22.485206	-15.148195	-33.628019	H	2	YLD124.LOD1	0.00699
	9497	C	25.647416	-13.875893	-34.330032	C	2	YLD124.LOD1	-0.347891
	9498	H	25.838296	-13.448806	-33.337996	H	2	YLD124.LOD1	0.075067
	9499	H	26.599846	-14.252864	-34.722359	H	2	YLD124.LOD1	0.071859
	9500	H	25.313982	-13.060808	-34.983627	H	2	YLD124.LOD1	0.077505
	9501	C	-25.818901	-25.748503	25.843886	C	1	YLD124_chi.LOD1	-0.150166
	9502	C	-24.462579	-25.775407	25.980726	C	1	YLD124_chi.LOD1	-0.190723
	9503	H	-23.842956	-25.729735	25.086466	H	1	YLD124_chi.LOD1	0.123134
	9504	H	-26.427616	-25.814062	26.744175	H	1	YLD124_chi.LOD1	0.111619
	9505	N	-28.963482	-25.522917	21.088344	N	1	YLD124_chi.LOD1	-0.506176
	9506	C	-28.192038	-25.541979	22.238245	C	1	YLD124_chi.LOD1	0.404469
	9507	C	-26.773239	-25.480360	22.184173	C	1	YLD124_chi.LOD1	-0.281203
	9508	C	-26.003446	-25.545470	23.330717	C	1	YLD124_chi.LOD1	-0.112562
	9509	C	-26.578870	-25.662870	24.614636	C	1	YLD124_chi.LOD1	0.131862
	9510	C	-27.987625	-25.696576	24.664812	C	1	YLD124_chi.LOD1	-0.140167
	9511	C	-28.774933	-25.635160	23.527343	C	1	YLD124_chi.LOD1	-0.26473
	9512	H	-26.265394	-25.378750	21.233248	H	1	YLD124_chi.LOD1	0.177954
	9513	H	-24.923674	-25.498618	23.223904	H	1	YLD124_chi.LOD1	0.098859
	9514	H	-28.477901	-25.775205	25.632826	H	1	YLD124_chi.LOD1	0.103807
	9515	H	-29.851103	-25.659751	23.645038	H	1	YLD124_chi.LOD1	0.161189
	9516	C	-23.739743	-25.897551	27.217426	C	1	YLD124_chi.LOD1	0.100982
	9517	C	-22.366005	-25.980093	27.190477	C	1	YLD124_chi.LOD1	-0.303623
	9518	C	-24.467255	-25.974308	28.543300	C	1	YLD124_chi.LOD1	0.096207
	9519	H	-21.861486	-25.911297	26.227872	H	1	YLD124_chi.LOD1	0.124941
	9520	C	-23.596076	-25.589611	29.761896	C	1	YLD124_chi.LOD1	0.409462
	9521	H	-25.354644	-25.330371	28.522635	H	1	YLD124_chi.LOD1	-0.020765
	9522	C	-22.252977	-26.351237	29.671717	C	1	YLD124_chi.LOD1	-0.014279
	9523	H	-22.448292	-27.426153	29.808667	H	1	YLD124_chi.LOD1	-0.02177
	9524	C	-21.548238	-26.166553	28.344646	C	1	YLD124_chi.LOD1	0.179445
	9525	C	-20.218197	-26.213489	28.065891	C	1	YLD124_chi.LOD1	-0.27725
	9526	H	-19.831103	-26.086944	27.054952	H	1	YLD124_chi.LOD1	0.132087
	9527	C	-19.264820	-26.430427	29.086327	C	1	YLD124_chi.LOD1	0.141075
	9528	C	-17.907269	-26.488233	28.844954	C	1	YLD124_chi.LOD1	-0.327608
	9529	H	-19.621358	-26.573074	30.099826	H	1	YLD124_chi.LOD1	-0.027316
	9530	C	-16.886135	-26.714132	29.793300	C	1	YLD124_chi.LOD1	0.260653
	9531	C	-15.531070	-26.838623	29.508092	C	1	YLD124_chi.LOD1	-0.287606
	9532	C	-17.035317	-26.876558	31.308468	C	1	YLD124_chi.LOD1	-0.056548
	9533	C	-14.811371	-27.102945	30.725077	C	1	YLD124_chi.LOD1	0.509074
	9534	C	-14.993971	-26.734833	28.199903	C	1	YLD124_chi.LOD1	0.396907
	9535	O	-15.683247	-27.168396	31.759754	O	1	YLD124_chi.LOD1	-0.366332
	9536	C	-17.959480	-28.015290	31.856371	C	1	YLD124_chi.LOD1	0.253806
	9537	C	-17.392169	-25.500919	32.115822	C	1	YLD124_chi.LOD1	0.598114
	9538	C	-13.473041	-27.307607	30.978722	C	1	YLD124_chi.LOD1	-0.43234
	9539	N	-14.647966	-26.638562	27.091958	N	1	YLD124_chi.LOD1	-0.430249
	9540	C	-12.486954	-27.271725	29.951071	C	1	YLD124_chi.LOD1	0.437474
	9541	C	-13.031697	-27.567276	32.310379	C	1	YLD124_chi.LOD1	0.49223
	9542	N	-11.648765	-27.251932	29.142613	N	1	YLD124_chi.LOD1	-0.451871
	9543	N	-12.657690	-27.782145	33.392038	N	1	YLD124_chi.LOD1	-0.482758
	9544	H	-17.565956	-26.368247	27.818184	H	1	YLD124_chi.LOD1	0.157364
	9545	H	-21.609666	-26.047912	30.504256	H	1	YLD124_chi.LOD1	0.040059
	9546	H	-24.843327	-27.000711	28.676565	H	1	YLD124_chi.LOD1	-0.024244
	9547	C	-28.414994	-25.359998	19.788468	C	1	YLD124_chi.LOD1	0.240322
	9548	C	-30.394018	-25.520791	21.102058	C	1	YLD124_chi.LOD1	0.113854
	9549	C	-31.122028	-24.299232	20.985809	C	1	YLD124_chi.LOD1	0.29958
	9550	C	-28.276867	-24.035674	19.289017	C	1	YLD124_chi.LOD1	0.285774
	9551	O	-28.506200	-23.125900	20.256400	O	1	YLD124_chi.LOD1	-0.61175
	9552	O	-31.010200	-23.501100	22.065600	O	1	YLD124_chi.LOD1	-0.599726
	9553	C	-33.276947	-21.978426	22.857239	C	1	YLD124_chi.LOD1	0.275329
	9554	C	-27.820773	-20.230840	20.139229	C	1	YLD124_chi.LOD1	0.358728
	9555	C	-28.874725	-19.481096	20.983910	C	1	YLD124_chi.LOD1	-0.337707
	9556	H	-28.525788	-19.291996	22.006736	H	1	YLD124_chi.LOD1	0.059176
	9557	H	-29.100492	-18.504217	20.532665	H	1	YLD124_chi.LOD1	0.075606
	9558	H	-29.820665	-20.032730	21.049148	H	1	YLD124_chi.LOD1	0.056098
	9559	C	-34.744310	-22.437292	23.007052	C	1	YLD124_chi.LOD1	-0.311529
	9560	H	-35.427535	-21.624488	22.721904	H	1	YLD124_chi.LOD1	0.071087
	9561	H	-34.977905	-23.295533	22.364634	H	1	YLD124_chi.LOD1	0.058721
	9562	H	-34.987667	-22.715868	24.039938	H	1	YLD124_chi.LOD1	0.056179
	9563	C	-28.359448	-20.414079	18.703641	C	1	YLD124_chi.LOD1	-0.279876
	9564	H	-27.650333	-20.960828	18.070796	H	1	YLD124_chi.LOD1	0.048405
	9565	H	-29.309467	-20.961385	18.688439	H	1	YLD124_chi.LOD1	0.047411
	9566	H	-28.538438	-19.436212	18.233597	H	1	YLD124_chi.LOD1	0.054899
	9567	C	-26.532581	-19.381183	20.081593	C	1	YLD124_chi.LOD1	-0.273001
	9568	H	-26.746796	-18.391147	19.653456	H	1	YLD124_chi.LOD1	0.0526
	9569	H	-26.097723	-19.216118	21.075219	H	1	YLD124_chi.LOD1	0.034813
	9570	H	-25.764266	-19.844506	19.450905	H	1	YLD124_chi.LOD1	0.061699
	9571	C	-33.032353	-20.756495	23.769145	C	1	YLD124_chi.LOD1	-0.202774
	9572	H	-33.227997	-20.984747	24.824241	H	1	YLD124_chi.LOD1	0.027959
	9573	H	-32.001564	-20.393696	23.689325	H	1	YLD124_chi.LOD1	0.030756
	9574	H	-33.700069	-19.930080	23.485761	H	1	YLD124_chi.LOD1	0.045471
	9575	C	-33.022617	-21.566633	21.390808	C	1	YLD124_chi.LOD1	-0.266625
	9576	H	-33.218164	-22.390826	20.693830	H	1	YLD124_chi.LOD1	0.041283
	9577	H	-33.685936	-20.736756	21.107398	H	1	YLD124_chi.LOD1	0.059445
	9578	H	-31.989700	-21.234648	21.238228	H	1	YLD124_chi.LOD1	0.054675
	9579	C	-32.978895	-25.016897	23.516976	C	1	YLD124_chi.LOD1	-0.410828
	9580	H	-33.765671	-24.971243	24.278316	H	1	YLD124_chi.LOD1	0.093855
	9581	H	-33.448401	-25.318188	22.572436	H	1	YLD124_chi.LOD1	0.090546
	9582	H	-32.286435	-25.818521	23.801231	H	1	YLD124_chi.LOD1	0.070213
	9583	C	-31.203451	-23.062047	24.903169	C	1	YLD124_chi.LOD1	-0.460074
	9584	H	-30.263511	-23.624622	24.960151	H	1	YLD124_chi.LOD1	0.099819
	9585	H	-30.958989	-21.998105	24.996891	H	1	YLD124_chi.LOD1	0.10243
	9586	H	-31.799837	-23.345507	25.778773	H	1	YLD124_chi.LOD1	0.086844
	9587	C	-27.855463	-21.971466	22.693169	C	1	YLD124_chi.LOD1	-0.477029
	9588	H	-28.927710	-22.106655	22.872568	H	1	YLD124_chi.LOD1	0.107463
	9589	H	-27.331543	-22.795290	23.191517	H	1	YLD124_chi.LOD1	0.106999
	9590	H	-27.548952	-21.038625	23.180896	H	1	YLD124_chi.LOD1	0.090486
	9591	C	-25.732050	-22.468912	20.638809	C	1	YLD124_chi.LOD1	-0.470103
	9592	H	-25.044219	-21.774571	21.136768	H	1	YLD124_chi.LOD1	0.112461
	9593	H	-25.512041	-23.477549	21.007119	H	1	YLD124_chi.LOD1	0.098066
	9594	H	-25.489103	-22.453275	19.569610	H	1	YLD124_chi.LOD1	0.083138
	9595	Si	-27.473000	-21.962600	20.907800	Si	1	YLD124_chi.LOD1	0.770043
	9596	Si	-32.104600	-23.415300	23.346600	Si	1	YLD124_chi.LOD1	0.73989
	9597	H	-27.268531	-23.890755	18.874697	H	1	YLD124_chi.LOD1	-0.017464
	9598	H	-30.737938	-26.229022	20.342890	H	1	YLD124_chi.LOD1	0.058354
	9599	H	-30.699055	-23.789649	20.108276	H	1	YLD124_chi.LOD1	-0.04034
	9600	H	-32.185754	-24.488660	20.777436	H	1	YLD124_chi.LOD1	-0.007901
	9601	H	-30.708101	-25.929197	22.068327	H	1	YLD124_chi.LOD1	0.028132
	9602	H	-27.422945	-25.822867	19.797727	H	1	YLD124_chi.LOD1	-0.011538
	9603	H	-29.018614	-25.943259	19.087253	H	1	YLD124_chi.LOD1	0.020652
	9604	H	-28.992767	-23.882803	18.469474	H	1	YLD124_chi.LOD1	-0.064856
	9605	C	-23.369582	-24.087490	29.716367	C	1	YLD124_chi.LOD1	-0.299384
	9606	H	-24.317286	-23.543534	29.808565	H	1	YLD124_chi.LOD1	0.066854
	9607	H	-22.743515	-23.811169	30.573190	H	1	YLD124_chi.LOD1	0.072315
	9608	H	-22.868523	-23.736670	28.808795	H	1	YLD124_chi.LOD1	0.027971
	9609	C	-24.344573	-26.017314	30.984351	C	1	YLD124_chi.LOD1	-0.427943
	9610	H	-25.312152	-25.507752	31.067966	H	1	YLD124_chi.LOD1	0.089807
	9611	H	-24.529998	-27.097932	31.016558	H	1	YLD124_chi.LOD1	0.091303
	9612	H	-23.752521	-25.751760	31.868430	H	1	YLD124_chi.LOD1	0.089757
	9613	C	-17.810186	-29.236877	31.182547	C	1	YLD124_chi.LOD1	-0.158763
	9614	C	-18.885052	-27.929559	32.904257	C	1	YLD124_chi.LOD1	-0.147279
	9615	C	-18.571428	-30.345636	31.541336	C	1	YLD124_chi.LOD1	-0.065518
	9616	H	-17.091426	-29.322267	30.373154	H	1	YLD124_chi.LOD1	0.080042
	9617	C	-19.653521	-29.041535	33.255690	C	1	YLD124_chi.LOD1	-0.090746
	9618	H	-19.015622	-27.009938	33.459517	H	1	YLD124_chi.LOD1	0.09871
	9619	C	-19.500595	-30.250292	32.579300	C	1	YLD124_chi.LOD1	-0.09866
	9620	H	-18.437924	-31.283051	31.009118	H	1	YLD124_chi.LOD1	0.104949
	9621	H	-20.096907	-31.113857	32.860345	H	1	YLD124_chi.LOD1	0.102095
	9622	H	-20.366946	-28.957761	34.070685	H	1	YLD124_chi.LOD1	0.105434
	9623	F	-18.150809	-24.753079	31.300173	F	1	YLD124_chi.LOD1	-0.19867
	9624	F	-16.272014	-24.809399	32.380554	F	1	YLD124_chi.LOD1	-0.154403
	9625	F	-18.064096	-25.655427	33.278738	F	1	YLD124_chi.LOD1	-0.186491
	9626	C	-1.343586	-21.407660	6.224552	C	1	YLD124.LOD1	-0.158041
	9627	C	-0.788945	-20.992435	7.398874	C	1	YLD124.LOD1	-0.174247
	9628	H	-0.207289	-21.702885	7.984224	H	1	YLD124.LOD1	0.11023
	9629	H	-1.935159	-20.693849	5.653694	H	1	YLD124.LOD1	0.116594
	9630	N	-1.066272	-26.528831	3.721803	N	1	YLD124.LOD1	-0.477879
	9631	C	-1.114134	-25.285149	4.328854	C	1	YLD124.LOD1	0.383639
	9632	C	-0.455979	-25.033808	5.563172	C	1	YLD124.LOD1	-0.278193
	9633	C	-0.528251	-23.799679	6.181919	C	1	YLD124.LOD1	-0.102205
	9634	C	-1.247340	-22.720975	5.622755	C	1	YLD124.LOD1	0.126725
	9635	C	-1.890238	-22.972301	4.393181	C	1	YLD124.LOD1	-0.148338
	9636	C	-1.829235	-24.201725	3.758711	C	1	YLD124.LOD1	-0.248652
	9637	H	0.120976	-25.813216	6.044969	H	1	YLD124.LOD1	0.176041
	9638	H	-0.006235	-23.670847	7.125495	H	1	YLD124.LOD1	0.098595
	9639	H	-2.452703	-22.170319	3.919827	H	1	YLD124.LOD1	0.105176
	9640	H	-2.339314	-24.316697	2.810442	H	1	YLD124.LOD1	0.157607
	9641	C	-0.904100	-19.680791	7.975752	C	1	YLD124.LOD1	0.13089
	9642	C	-0.314478	-19.426890	9.193469	C	1	YLD124.LOD1	-0.298955
	9643	C	-1.679261	-18.582794	7.277951	C	1	YLD124.LOD1	0.000678
	9644	H	0.247371	-20.226641	9.673698	H	1	YLD124.LOD1	0.128536
	9645	C	-1.270844	-17.154384	7.708542	C	1	YLD124.LOD1	0.312314
	9646	H	-1.564913	-18.673077	6.191193	H	1	YLD124.LOD1	0.009572
	9647	C	-1.237433	-17.092630	9.253616	C	1	YLD124.LOD1	0.132423
	9648	H	-2.264998	-17.207958	9.632082	H	1	YLD124.LOD1	-0.011706
	9649	C	-0.383784	-18.176398	9.876830	C	1	YLD124.LOD1	0.094029
	9650	C	0.313855	-18.154597	11.044942	C	1	YLD124.LOD1	-0.194272
	9651	H	0.872923	-19.018692	11.403614	H	1	YLD124.LOD1	0.118653
	9652	C	0.351757	-16.995675	11.852641	C	1	YLD124.LOD1	0.029031
	9653	C	1.073928	-16.919942	13.026179	C	1	YLD124.LOD1	-0.298661
	9654	H	-0.205344	-16.125386	11.525998	H	1	YLD124.LOD1	0.063317
	9655	C	1.201026	-15.795351	13.870071	C	1	YLD124.LOD1	0.24754
	9656	C	2.008301	-15.717337	14.999441	C	1	YLD124.LOD1	-0.281071
	9657	C	0.512189	-14.435378	13.725658	C	1	YLD124.LOD1	-0.098074
	9658	C	1.916600	-14.395278	15.558485	C	1	YLD124.LOD1	0.526995
	9659	C	2.802251	-16.793802	15.469911	C	1	YLD124.LOD1	0.389724
	9660	O	1.094105	-13.637739	14.792786	O	1	YLD124.LOD1	-0.351072
	9661	C	-1.072335	-14.427369	14.099302	C	1	YLD124.LOD1	0.617997
	9662	C	0.702062	-13.635914	12.395266	C	1	YLD124.LOD1	0.253109
	9663	C	2.511911	-13.815065	16.656675	C	1	YLD124.LOD1	-0.451385
	9664	N	3.422562	-17.730826	15.776082	N	1	YLD124.LOD1	-0.428829
	9665	F	-1.200409	-15.057755	15.276581	F	1	YLD124.LOD1	-0.200469
	9666	F	-1.636121	-13.214895	14.218848	F	1	YLD124.LOD1	-0.158364
	9667	F	-1.779971	-15.121899	13.180629	F	1	YLD124.LOD1	-0.193377
	9668	C	1.463777	-14.336682	11.448284	C	1	YLD124.LOD1	-0.158716
	9669	C	0.265124	-12.340958	12.088895	C	1	YLD124.LOD1	-0.162688
	9670	C	3.401682	-14.529909	17.509363	C	1	YLD124.LOD1	0.447489
	9671	C	2.244905	-12.449971	16.974151	C	1	YLD124.LOD1	0.491336
	9672	H	1.816509	-15.338491	11.674499	H	1	YLD124.LOD1	0.085247
	9673	C	1.776404	-13.761831	10.219842	C	1	YLD124.LOD1	-0.074329
	9674	C	0.572675	-11.770639	10.851178	C	1	YLD124.LOD1	-0.055824
	9675	H	-0.308485	-11.762131	12.801032	H	1	YLD124.LOD1	0.099228
	9676	N	4.134151	-15.076244	18.231549	N	1	YLD124.LOD1	-0.454587
	9677	N	2.037888	-11.336173	17.243641	N	1	YLD124.LOD1	-0.481156
	9678	H	2.370295	-14.319841	9.501732	H	1	YLD124.LOD1	0.111202
	9679	C	1.326827	-12.475270	9.914713	C	1	YLD124.LOD1	-0.106678
	9680	H	0.227369	-10.764667	10.629620	H	1	YLD124.LOD1	0.095951
	9681	H	1.568417	-12.024852	8.956015	H	1	YLD124.LOD1	0.103827
	9682	H	1.637046	-17.798110	13.337431	H	1	YLD124.LOD1	0.159396
	9683	H	-0.904762	-16.097820	9.567366	H	1	YLD124.LOD1	-0.052081
	9684	H	-2.751621	-18.728337	7.481273	H	1	YLD124.LOD1	-0.003289
	9685	C	-0.276263	-27.588175	4.236298	C	1	YLD124.LOD1	0.198954
	9686	C	-1.685240	-26.762603	2.457066	C	1	YLD124.LOD1	0.115128
	9687	C	-1.106548	-26.136368	1.316012	C	1	YLD124.LOD1	0.306486
	9688	C	1.119127	-27.630624	3.940315	C	1	YLD124.LOD1	0.28632
	9689	O	1.376780	-27.785700	2.627200	O	1	YLD124.LOD1	-0.606883
	9690	O	-0.274415	-25.142100	1.682030	O	1	YLD124.LOD1	-0.600198
	9691	C	1.988673	-23.440842	1.765517	C	1	YLD124.LOD1	0.267162
	9692	C	2.441157	-28.822380	0.048581	C	1	YLD124.LOD1	0.369124
	9693	C	2.774059	-30.135743	-0.694068	C	1	YLD124.LOD1	-0.324271
	9694	H	1.881770	-30.749522	-0.869841	H	1	YLD124.LOD1	0.053925
	9695	H	3.214401	-29.915502	-1.677176	H	1	YLD124.LOD1	0.070181
	9696	H	3.499405	-30.748499	-0.145227	H	1	YLD124.LOD1	0.052098
	9697	C	2.790330	-22.366311	0.997944	C	1	YLD124.LOD1	-0.316887
	9698	H	3.662873	-22.050850	1.587718	H	1	YLD124.LOD1	0.07213
	9699	H	3.166897	-22.738401	0.036953	H	1	YLD124.LOD1	0.059956
	9700	H	2.192855	-21.467985	0.798717	H	1	YLD124.LOD1	0.057948
	9701	C	3.736402	-28.000924	0.226411	C	1	YLD124.LOD1	-0.260833
	9702	H	3.551192	-27.060785	0.759237	H	1	YLD124.LOD1	0.041714
	9703	H	4.498588	-28.555342	0.786704	H	1	YLD124.LOD1	0.041636
	9704	H	4.169434	-27.749039	-0.752522	H	1	YLD124.LOD1	0.048242
	9705	C	1.446977	-28.007167	-0.806610	C	1	YLD124.LOD1	-0.256632
	9706	H	1.874531	-27.802611	-1.798954	H	1	YLD124.LOD1	0.046696
	9707	H	0.501310	-28.539858	-0.965634	H	1	YLD124.LOD1	0.030906
	9708	H	1.214009	-27.037137	-0.351029	H	1	YLD124.LOD1	0.051975
	9709	C	1.519556	-22.854108	3.114742	C	1	YLD124.LOD1	-0.203727
	9710	H	0.892693	-21.964234	2.978326	H	1	YLD124.LOD1	0.027457
	9711	H	0.944442	-23.584243	3.694905	H	1	YLD124.LOD1	0.031775
	9712	H	2.385828	-22.552361	3.720916	H	1	YLD124.LOD1	0.046776
	9713	C	2.902741	-24.655433	2.037658	C	1	YLD124.LOD1	-0.249027
	9714	H	3.293595	-25.089860	1.109215	H	1	YLD124.LOD1	0.037596
	9715	H	3.768154	-24.352964	2.644774	H	1	YLD124.LOD1	0.055765
	9716	H	2.373319	-25.445637	2.581444	H	1	YLD124.LOD1	0.04836
	9717	C	0.960803	-24.721947	-0.884354	C	1	YLD124.LOD1	-0.409962
	9718	H	1.651770	-25.561442	-0.748065	H	1	YLD124.LOD1	0.090944
	9719	H	0.088441	-25.095174	-1.434729	H	1	YLD124.LOD1	0.090896
	9720	H	1.455381	-23.984592	-1.528360	H	1	YLD124.LOD1	0.069902
	9721	C	-0.686016	-22.593433	0.405866	C	1	YLD124.LOD1	-0.458602
	9722	H	-1.572606	-22.930402	-0.145154	H	1	YLD124.LOD1	0.097974
	9723	H	-1.029541	-22.134579	1.339742	H	1	YLD124.LOD1	0.103309
	9724	H	-0.211989	-21.808793	-0.196370	H	1	YLD124.LOD1	0.085827
	9725	C	2.915356	-30.077563	2.848828	C	1	YLD124.LOD1	-0.493974
	9726	H	3.793253	-29.453632	3.049360	H	1	YLD124.LOD1	0.11158
	9727	H	2.460188	-30.326294	3.814432	H	1	YLD124.LOD1	0.113577
	9728	H	3.264069	-31.012161	2.394381	H	1	YLD124.LOD1	0.09477
	9729	C	0.176389	-30.205780	1.632552	C	1	YLD124.LOD1	-0.483575
	9730	H	-0.251739	-30.410730	2.621361	H	1	YLD124.LOD1	0.116965
	9731	H	-0.596569	-29.714422	1.030808	H	1	YLD124.LOD1	0.100121
	9732	H	0.387496	-31.174352	1.163762	H	1	YLD124.LOD1	0.088084
	9733	Si	1.709280	-29.211100	1.788710	Si	1	YLD124.LOD1	0.763339
	9734	Si	0.474510	-23.977200	0.717981	Si	1	YLD124.LOD1	0.748472
	9735	H	1.521852	-26.666769	4.284726	H	1	YLD124.LOD1	-0.009815
	9736	H	-1.722979	-27.842831	2.290145	H	1	YLD124.LOD1	0.057511
	9737	H	-0.551133	-26.891317	0.741146	H	1	YLD124.LOD1	-0.045737
	9738	H	-1.892135	-25.733125	0.659453	H	1	YLD124.LOD1	-0.011652
	9739	H	-2.724723	-26.425261	2.526399	H	1	YLD124.LOD1	0.023801
	9740	H	-0.431361	-27.618170	5.319994	H	1	YLD124.LOD1	-0.001966
	9741	H	-0.668372	-28.530648	3.844329	H	1	YLD124.LOD1	0.031172
	9742	H	1.625962	-28.420642	4.511578	H	1	YLD124.LOD1	-0.066029
	9743	C	0.109041	-16.866384	7.127275	C	1	YLD124.LOD1	-0.185058
	9744	H	0.083844	-16.879810	6.031022	H	1	YLD124.LOD1	0.04722
	9745	H	0.408608	-15.859292	7.441129	H	1	YLD124.LOD1	0.027573
	9746	H	0.886740	-17.563811	7.453703	H	1	YLD124.LOD1	0.00699
	9747	C	-2.313233	-16.222979	7.182617	C	1	YLD124.LOD1	-0.347891
	9748	H	-2.375615	-16.257107	6.088123	H	1	YLD124.LOD1	0.075067
	9749	H	-3.312640	-16.433317	7.582733	H	1	YLD124.LOD1	0.071859
	9750	H	-2.046023	-15.198324	7.467940	H	1	YLD124.LOD1	0.077505
	9751	C	3.759947	25.998003	27.588616	C	2	YLD124.LOD1	-0.158041
	9752	C	3.520457	27.092322	28.365907	C	2	YLD124.LOD1	-0.174247
	9753	H	2.489473	27.396352	28.540085	H	2	YLD124.LOD1	0.11023
	9754	H	4.794553	25.710555	27.408823	H	2	YLD124.LOD1	0.116594
	9755	N	0.036888	22.540655	24.990034	N	2	YLD124.LOD1	-0.477879
	9756	C	0.931882	23.375584	25.637666	C	2	YLD124.LOD1	0.383639
	9757	C	0.489699	24.474321	26.423244	C	2	YLD124.LOD1	-0.278193
	9758	C	1.385269	25.323588	27.046016	C	2	YLD124.LOD1	-0.102205
	9759	C	2.782220	25.144639	26.946712	C	2	YLD124.LOD1	0.126725
	9760	C	3.215798	24.047340	26.174519	C	2	YLD124.LOD1	-0.148338
	9761	C	2.333839	23.186211	25.543361	C	2	YLD124.LOD1	-0.248652
	9762	H	-0.568368	24.666512	26.549893	H	2	YLD124.LOD1	0.176041
	9763	H	0.985380	26.147302	27.629983	H	2	YLD124.LOD1	0.098595
	9764	H	4.283433	23.864698	26.072529	H	2	YLD124.LOD1	0.105176
	9765	H	2.740829	22.358264	24.976372	H	2	YLD124.LOD1	0.157607
	9766	C	4.512647	27.925316	28.988913	C	2	YLD124.LOD1	0.13089
	9767	C	4.110029	29.022621	29.716082	C	2	YLD124.LOD1	-0.298955
	9768	C	5.990320	27.628593	28.841134	C	2	YLD124.LOD1	0.000678
	9769	H	3.042680	29.212420	29.819224	H	2	YLD124.LOD1	0.128536
	9770	C	6.868209	28.237159	29.959851	C	2	YLD124.LOD1	0.312314
	9771	H	6.155666	26.545129	28.808952	H	2	YLD124.LOD1	0.009572
	9772	C	6.483465	29.724532	30.138402	C	2	YLD124.LOD1	0.132423
	9773	H	6.777878	30.274862	29.231272	H	2	YLD124.LOD1	-0.011706
	9774	C	5.000247	29.936458	30.354774	C	2	YLD124.LOD1	0.094029
	9775	C	4.365620	30.918724	31.050434	C	2	YLD124.LOD1	-0.194272
	9776	H	3.279010	30.979925	31.108690	H	2	YLD124.LOD1	0.118653
	9777	C	5.094179	31.912063	31.742817	C	2	YLD124.LOD1	0.029031
	9778	C	4.491345	32.905139	32.487699	C	2	YLD124.LOD1	-0.298661
	9779	H	6.176300	31.882393	31.691886	H	2	YLD124.LOD1	0.063317
	9780	C	5.138594	33.908282	33.241215	C	2	YLD124.LOD1	0.24754
	9781	C	4.508801	34.842058	34.056492	C	2	YLD124.LOD1	-0.281071
	9782	C	6.642771	34.175927	33.344639	C	2	YLD124.LOD1	-0.098074
	9783	C	5.503265	35.655184	34.703520	C	2	YLD124.LOD1	0.526995
	9784	C	3.101884	34.921082	34.214027	C	2	YLD124.LOD1	0.389724
	9785	O	6.738229	35.236516	34.334415	O	2	YLD124.LOD1	-0.351072
	9786	C	7.308899	34.859523	32.025691	C	2	YLD124.LOD1	0.617997
	9787	C	7.580080	33.017034	33.817369	C	2	YLD124.LOD1	0.253109
	9788	C	5.402533	36.700382	35.594855	C	2	YLD124.LOD1	-0.451385
	9789	N	1.939323	34.905178	34.282861	N	2	YLD124.LOD1	-0.428829
	9790	F	6.524563	35.891909	31.681058	F	2	YLD124.LOD1	-0.200469
	9791	F	8.558231	35.326052	32.179836	F	2	YLD124.LOD1	-0.158364
	9792	F	7.319437	33.987146	30.993254	F	2	YLD124.LOD1	-0.193377
	9793	C	6.990048	31.750030	33.696442	C	2	YLD124.LOD1	-0.158716
	9794	C	8.848893	33.120340	34.401430	C	2	YLD124.LOD1	-0.162688
	9795	C	4.147205	37.197098	36.050042	C	2	YLD124.LOD1	0.447489
	9796	C	6.582774	37.325976	36.096082	C	2	YLD124.LOD1	0.491336
	9797	H	6.003365	31.654764	33.253050	H	2	YLD124.LOD1	0.085247
	9798	C	7.653818	30.610315	34.141096	C	2	YLD124.LOD1	-0.074329
	9799	C	9.516339	31.973297	34.838013	C	2	YLD124.LOD1	-0.055824
	9800	H	9.328210	34.082214	34.528947	H	2	YLD124.LOD1	0.099228
	9801	N	3.143433	37.633646	36.448055	N	2	YLD124.LOD1	-0.454587
	9802	N	7.537699	37.844225	36.515085	N	2	YLD124.LOD1	-0.481156
	9803	H	7.178149	29.638937	34.041448	H	2	YLD124.LOD1	0.111202
	9804	C	8.924409	30.718056	34.710702	C	2	YLD124.LOD1	-0.106678
	9805	H	10.499390	32.070740	35.290138	H	2	YLD124.LOD1	0.095951
	9806	H	9.445144	29.829799	35.057372	H	2	YLD124.LOD1	0.103827
	9807	H	3.403950	32.917277	32.538519	H	2	YLD124.LOD1	0.159396
	9808	H	7.067932	30.151820	30.959729	H	2	YLD124.LOD1	-0.052081
	9809	H	6.328682	28.014160	27.866801	H	2	YLD124.LOD1	-0.003289
	9810	C	-1.370158	22.644300	25.141468	C	2	YLD124.LOD1	0.198954
	9811	C	0.447446	21.396321	24.240121	C	2	YLD124.LOD1	0.115128
	9812	C	0.549339	20.123828	24.879247	C	2	YLD124.LOD1	0.306486
	9813	C	-1.999192	21.846628	26.139345	C	2	YLD124.LOD1	0.28632
	9814	O	-1.125330	21.491800	27.101200	O	2	YLD124.LOD1	-0.606883
	9815	O	1.446900	20.111000	25.883800	O	2	YLD124.LOD1	-0.600198
	9816	C	2.744562	17.722542	26.680267	C	2	YLD124.LOD1	0.267162
	9817	C	0.398362	21.343046	29.653255	C	2	YLD124.LOD1	0.369124
	9818	C	0.208808	21.274173	31.185117	C	2	YLD124.LOD1	-0.324271
	9819	H	-0.311364	20.359932	31.497182	H	2	YLD124.LOD1	0.053925
	9820	H	1.185679	21.279216	31.689702	H	2	YLD124.LOD1	0.070181
	9821	H	-0.358135	22.130318	31.570363	H	2	YLD124.LOD1	0.052098
	9822	C	4.089439	16.962797	26.703386	C	2	YLD124.LOD1	-0.316887
	9823	H	3.962907	15.982466	27.184656	H	2	YLD124.LOD1	0.07213
	9824	H	4.479047	16.779784	25.694194	H	2	YLD124.LOD1	0.059956
	9825	H	4.860103	17.502793	27.267424	H	2	YLD124.LOD1	0.057948
	9826	C	1.165668	22.634782	29.297261	C	2	YLD124.LOD1	-0.260833
	9827	H	1.316080	22.732861	28.215676	H	2	YLD124.LOD1	0.041714
	9828	H	0.637858	23.532033	29.641634	H	2	YLD124.LOD1	0.041636
	9829	H	2.157214	22.636463	29.772768	H	2	YLD124.LOD1	0.048242
	9830	C	1.234256	20.125842	29.201574	C	2	YLD124.LOD1	-0.256632
	9831	H	2.204199	20.114668	29.719720	H	2	YLD124.LOD1	0.046696
	9832	H	0.737139	19.173981	29.425559	H	2	YLD124.LOD1	0.030906
	9833	H	1.445106	20.150051	28.125589	H	2	YLD124.LOD1	0.051975
	9834	C	2.247607	17.915238	28.129626	C	2	YLD124.LOD1	-0.203727
	9835	H	2.968425	18.474785	28.738535	H	2	YLD124.LOD1	0.027457
	9836	H	1.292953	18.451947	28.161591	H	2	YLD124.LOD1	0.031775
	9837	H	2.099634	16.939649	28.614657	H	2	YLD124.LOD1	0.046776
	9838	C	1.705361	16.887542	25.900749	C	2	YLD124.LOD1	-0.249027
	9839	H	2.027683	16.690763	24.870756	H	2	YLD124.LOD1	0.037596
	9840	H	1.557248	15.912583	26.387096	H	2	YLD124.LOD1	0.055765
	9841	H	0.732915	17.390481	25.858133	H	2	YLD124.LOD1	0.04836
	9842	C	3.540273	19.271629	24.094362	C	2	YLD124.LOD1	-0.409962
	9843	H	2.859505	18.644636	23.507680	H	2	YLD124.LOD1	0.090944
	9844	H	3.597654	20.250562	23.602808	H	2	YLD124.LOD1	0.090896
	9845	H	4.539746	18.823707	24.035513	H	2	YLD124.LOD1	0.069902
	9846	C	4.168631	20.495388	26.742890	C	2	YLD124.LOD1	-0.458602
	9847	H	4.252566	21.485207	26.277673	H	2	YLD124.LOD1	0.097974
	9848	H	3.862738	20.642606	27.784733	H	2	YLD124.LOD1	0.103309
	9849	H	5.173934	20.056786	26.749481	H	2	YLD124.LOD1	0.085827
	9850	C	-2.269651	22.869411	29.213348	C	2	YLD124.LOD1	-0.493974
	9851	H	-1.765205	23.781294	28.875400	H	2	YLD124.LOD1	0.11158
	9852	H	-3.256106	22.842255	28.736268	H	2	YLD124.LOD1	0.113577
	9853	H	-2.425095	22.952664	30.295246	H	2	YLD124.LOD1	0.09477
	9854	C	-2.277442	19.870010	29.181946	C	2	YLD124.LOD1	-0.483575
	9855	H	-3.245250	19.879186	28.665897	H	2	YLD124.LOD1	0.116965
	9856	H	-1.762421	18.942726	28.906462	H	2	YLD124.LOD1	0.100121
	9857	H	-2.484277	19.820538	30.257693	H	2	YLD124.LOD1	0.088084
	9858	Si	-1.316030	21.377400	28.773200	Si	2	YLD124.LOD1	0.763339
	9859	Si	2.988500	19.426600	25.835100	Si	2	YLD124.LOD1	0.748472
	9860	H	-2.848533	22.380552	26.590306	H	2	YLD124.LOD1	-0.009815
	9861	H	-0.198335	21.319409	23.360786	H	2	YLD124.LOD1	0.057511
	9862	H	-0.453173	19.907567	25.275613	H	2	YLD124.LOD1	-0.045737
	9863	H	0.797074	19.331550	24.156927	H	2	YLD124.LOD1	-0.011652
	9864	H	1.456051	21.598535	23.864679	H	2	YLD124.LOD1	0.023801
	9865	H	-1.592378	23.689460	25.381494	H	2	YLD124.LOD1	-0.001966
	9866	H	-1.831592	22.448167	24.169739	H	2	YLD124.LOD1	0.031172
	9867	H	-2.398919	20.945852	25.653370	H	2	YLD124.LOD1	-0.066029
	9868	C	6.603685	27.453988	31.241079	C	2	YLD124.LOD1	-0.185058
	9869	H	6.902727	26.404915	31.128806	H	2	YLD124.LOD1	0.04722
	9870	H	7.214261	27.890531	32.040519	H	2	YLD124.LOD1	0.027573
	9871	H	5.559824	27.472155	31.569404	H	2	YLD124.LOD1	0.00699
	9872	C	8.288518	28.127274	29.511203	C	2	YLD124.LOD1	-0.347891
	9873	H	8.587678	27.083439	29.356658	H	2	YLD124.LOD1	0.075067
	9874	H	8.484291	28.674078	28.580703	H	2	YLD124.LOD1	0.071859
	9875	H	8.937038	28.546485	30.289927	H	2	YLD124.LOD1	0.077505
	9876	C	-29.574528	-7.614639	22.905933	C	1	YLD124_chi.LOD1	-0.150166
	9877	C	-29.256887	-8.134904	24.125558	C	1	YLD124_chi.LOD1	-0.190723
	9878	H	-28.777105	-9.111320	24.171815	H	1	YLD124_chi.LOD1	0.123134
	9879	H	-30.071168	-6.646304	22.873865	H	1	YLD124_chi.LOD1	0.111619
	9880	N	-28.854977	-9.877299	17.717766	N	1	YLD124_chi.LOD1	-0.506176
	9881	C	-28.993440	-9.321124	18.978424	C	1	YLD124_chi.LOD1	0.404469
	9882	C	-28.521131	-9.986686	20.141894	C	1	YLD124_chi.LOD1	-0.281203
	9883	C	-28.701118	-9.450742	21.403540	C	1	YLD124_chi.LOD1	-0.112562
	9884	C	-29.348676	-8.212754	21.607013	C	1	YLD124_chi.LOD1	0.131862
	9885	C	-29.791517	-7.543775	20.447443	C	1	YLD124_chi.LOD1	-0.140167
	9886	C	-29.622515	-8.065977	19.176142	C	1	YLD124_chi.LOD1	-0.26473
	9887	H	-28.005109	-10.935004	20.058801	H	1	YLD124_chi.LOD1	0.177954
	9888	H	-28.322374	-10.009562	22.254295	H	1	YLD124_chi.LOD1	0.098859
	9889	H	-30.286633	-6.580726	20.552325	H	1	YLD124_chi.LOD1	0.103807
	9890	H	-29.983122	-7.491283	18.332171	H	1	YLD124_chi.LOD1	0.161189
	9891	C	-29.528743	-7.528440	25.400367	C	1	YLD124_chi.LOD1	0.100982
	9892	C	-29.208763	-8.209179	26.553147	C	1	YLD124_chi.LOD1	-0.303623
	9893	C	-30.194435	-6.171532	25.493968	C	1	YLD124_chi.LOD1	0.096207
	9894	H	-28.720201	-9.178327	26.464034	H	1	YLD124_chi.LOD1	0.124941
	9895	C	-29.956327	-5.445601	26.838681	C	1	YLD124_chi.LOD1	0.409462
	9896	H	-29.850626	-5.527270	24.675883	H	1	YLD124_chi.LOD1	-0.020765
	9897	C	-30.246440	-6.432729	27.993469	C	1	YLD124_chi.LOD1	-0.014279
	9898	H	-31.323357	-6.662029	27.997998	H	1	YLD124_chi.LOD1	-0.02177
	9899	C	-29.488271	-7.737292	27.870270	C	1	YLD124_chi.LOD1	0.179445
	9900	C	-29.073993	-8.584572	28.849815	C	1	YLD124_chi.LOD1	-0.27725
	9901	H	-28.551580	-9.515691	28.630830	H	1	YLD124_chi.LOD1	0.132087
	9902	C	-29.303705	-8.293118	30.213475	C	1	YLD124_chi.LOD1	0.141075
	9903	C	-28.902557	-9.127358	31.237032	C	1	YLD124_chi.LOD1	-0.327608
	9904	H	-29.832958	-7.380297	30.461059	H	1	YLD124_chi.LOD1	-0.027316
	9905	C	-29.100114	-8.927764	32.620592	C	1	YLD124_chi.LOD1	0.260653
	9906	C	-28.747648	-9.822287	33.624902	C	1	YLD124_chi.LOD1	-0.287606
	9907	C	-29.736679	-7.717936	33.310138	C	1	YLD124_chi.LOD1	-0.056548
	9908	C	-29.144406	-9.286619	34.899472	C	1	YLD124_chi.LOD1	0.509074
	9909	C	-28.116174	-11.067531	33.377485	C	1	YLD124_chi.LOD1	0.396907
	9910	O	-29.754742	-8.091236	34.716283	O	1	YLD124_chi.LOD1	-0.366332
	9911	C	-31.198401	-7.312980	32.922483	C	1	YLD124_chi.LOD1	0.253806
	9912	C	-28.817868	-6.366099	33.314905	C	1	YLD124_chi.LOD1	0.598114
	9913	C	-29.028544	-9.776352	36.181692	C	1	YLD124_chi.LOD1	-0.43234
	9914	N	-27.604426	-12.069186	33.075278	N	1	YLD124_chi.LOD1	-0.430249
	9915	C	-28.415067	-11.029981	36.467668	C	1	YLD124_chi.LOD1	0.437474
	9916	C	-29.533323	-9.020596	37.281488	C	1	YLD124_chi.LOD1	0.49223
	9917	N	-27.922538	-12.048041	36.746105	N	1	YLD124_chi.LOD1	-0.451871
	9918	N	-29.942566	-8.415368	38.188270	N	1	YLD124_chi.LOD1	-0.482758
	9919	H	-28.394381	-10.052812	30.971628	H	1	YLD124_chi.LOD1	0.157364
	9920	H	-30.033213	-5.942619	28.949137	H	1	YLD124_chi.LOD1	0.040059
	9921	H	-31.276945	-6.302045	25.339595	H	1	YLD124_chi.LOD1	-0.024244
	9922	C	-28.167274	-11.099024	17.493543	C	1	YLD124_chi.LOD1	0.240322
	9923	C	-29.268733	-9.190555	16.533937	C	1	YLD124_chi.LOD1	0.113854
	9924	C	-28.460775	-8.150968	15.983634	C	1	YLD124_chi.LOD1	0.29958
	9925	C	-26.739405	-11.175092	17.489783	C	1	YLD124_chi.LOD1	0.285774
	9926	O	-26.174200	-11.692800	18.598300	O	1	YLD124_chi.LOD1	-0.61175
	9927	O	-28.470000	-7.015490	16.709000	O	1	YLD124_chi.LOD1	-0.599726
	9928	C	-30.770446	-5.419651	16.198963	C	1	YLD124_chi.LOD1	0.275329
	9929	C	-24.670868	-14.184366	18.001482	C	1	YLD124_chi.LOD1	0.358728
	9930	C	-23.463009	-13.233332	17.849730	C	1	YLD124_chi.LOD1	-0.337707
	9931	H	-23.014722	-12.977380	18.817829	H	1	YLD124_chi.LOD1	0.059176
	9932	H	-22.677561	-13.707975	17.244196	H	1	YLD124_chi.LOD1	0.075606
	9933	H	-23.735105	-12.296406	17.348241	H	1	YLD124_chi.LOD1	0.056098
	9934	C	-31.311770	-5.920147	14.841529	C	1	YLD124_chi.LOD1	-0.311529
	9935	H	-32.410892	-5.894149	14.837932	H	1	YLD124_chi.LOD1	0.071087
	9936	H	-30.971504	-5.297604	14.004568	H	1	YLD124_chi.LOD1	0.058721
	9937	H	-31.012862	-6.954888	14.632617	H	1	YLD124_chi.LOD1	0.056179
	9938	C	-25.214297	-14.540263	16.600525	C	1	YLD124_chi.LOD1	-0.279876
	9939	H	-26.087819	-15.200360	16.659710	H	1	YLD124_chi.LOD1	0.048405
	9940	H	-25.509287	-13.647865	16.035797	H	1	YLD124_chi.LOD1	0.047411
	9941	H	-24.444752	-15.059845	16.011427	H	1	YLD124_chi.LOD1	0.054899
	9942	C	-24.199753	-15.480926	18.695500	C	1	YLD124_chi.LOD1	-0.273001
	9943	H	-23.396880	-15.955909	18.113136	H	1	YLD124_chi.LOD1	0.0526
	9944	H	-23.802420	-15.294398	19.700972	H	1	YLD124_chi.LOD1	0.034813
	9945	H	-25.009478	-16.215187	18.784664	H	1	YLD124_chi.LOD1	0.061699
	9946	C	-31.310595	-6.326946	17.325713	C	1	YLD124_chi.LOD1	-0.202774
	9947	H	-31.014012	-7.374234	17.188492	H	1	YLD124_chi.LOD1	0.027959
	9948	H	-30.954404	-6.002987	18.309938	H	1	YLD124_chi.LOD1	0.030756
	9949	H	-32.409719	-6.299570	17.342781	H	1	YLD124_chi.LOD1	0.045471
	9950	C	-31.263963	-3.976312	16.439571	C	1	YLD124_chi.LOD1	-0.266625
	9951	H	-30.938100	-3.293899	15.644940	H	1	YLD124_chi.LOD1	0.041283
	9952	H	-32.362916	-3.948009	16.462155	H	1	YLD124_chi.LOD1	0.059445
	9953	H	-30.900716	-3.579469	17.394024	H	1	YLD124_chi.LOD1	0.054675
	9954	C	-28.134024	-4.224101	17.322295	C	1	YLD124_chi.LOD1	-0.410828
	9955	H	-27.498293	-3.503830	16.795230	H	1	YLD124_chi.LOD1	0.093855
	9956	H	-28.916965	-3.657737	17.841529	H	1	YLD124_chi.LOD1	0.090546
	9957	H	-27.521789	-4.706684	18.093775	H	1	YLD124_chi.LOD1	0.070213
	9958	C	-28.158466	-5.194685	14.501873	C	1	YLD124_chi.LOD1	-0.460074
	9959	H	-27.108169	-5.506433	14.447900	H	1	YLD124_chi.LOD1	0.099819
	9960	H	-28.710519	-5.757015	13.740599	H	1	YLD124_chi.LOD1	0.10243
	9961	H	-28.192490	-4.134519	14.223308	H	1	YLD124_chi.LOD1	0.086844
	9962	C	-25.648214	-13.302208	20.795381	C	1	YLD124_chi.LOD1	-0.477029
	9963	H	-24.760026	-12.692019	20.992781	H	1	YLD124_chi.LOD1	0.107463
	9964	H	-26.475653	-12.876931	21.375048	H	1	YLD124_chi.LOD1	0.106999
	9965	H	-25.455030	-14.310107	21.181176	H	1	YLD124_chi.LOD1	0.090486
	9966	C	-27.685086	-14.137058	18.764713	C	1	YLD124_chi.LOD1	-0.470103
	9967	H	-27.627393	-14.875355	17.955532	H	1	YLD124_chi.LOD1	0.112461
	9968	H	-28.056174	-14.650931	19.658934	H	1	YLD124_chi.LOD1	0.098066
	9969	H	-28.443283	-13.399452	18.475702	H	1	YLD124_chi.LOD1	0.083138
	9970	Si	-26.062500	-13.322900	19.017300	Si	1	YLD124_chi.LOD1	0.770043
	9971	Si	-28.853100	-5.460980	16.177100	Si	1	YLD124_chi.LOD1	0.73989
	9972	H	-26.395570	-11.729269	16.604306	H	1	YLD124_chi.LOD1	-0.017464
	9973	H	-29.481613	-9.937812	15.764198	H	1	YLD124_chi.LOD1	0.058354
	9974	H	-27.440817	-8.560398	15.957197	H	1	YLD124_chi.LOD1	-0.04034
	9975	H	-28.754327	-7.927251	14.947009	H	1	YLD124_chi.LOD1	-0.007901
	9976	H	-30.221079	-8.697616	16.755673	H	1	YLD124_chi.LOD1	0.028132
	9977	H	-28.450925	-11.784693	18.298462	H	1	YLD124_chi.LOD1	-0.011538
	9978	H	-28.544677	-11.541329	16.567159	H	1	YLD124_chi.LOD1	0.020652
	9979	H	-26.414899	-10.132102	17.369775	H	1	YLD124_chi.LOD1	-0.064856
	9980	C	-28.507456	-4.987898	26.870290	C	1	YLD124_chi.LOD1	-0.299384
	9981	H	-28.305185	-4.266023	26.069969	H	1	YLD124_chi.LOD1	0.066854
	9982	H	-28.330899	-4.481329	27.826676	H	1	YLD124_chi.LOD1	0.072315
	9983	H	-27.778560	-5.799513	26.781889	H	1	YLD124_chi.LOD1	0.027971
	9984	C	-30.917929	-4.301039	26.891642	C	1	YLD124_chi.LOD1	-0.427943
	9985	H	-30.750141	-3.590610	26.073113	H	1	YLD124_chi.LOD1	0.089807
	9986	H	-31.966419	-4.620512	26.849674	H	1	YLD124_chi.LOD1	0.091303
	9987	H	-30.768823	-3.761538	27.834693	H	1	YLD124_chi.LOD1	0.089757
	9988	C	-32.073297	-8.403297	32.802615	C	1	YLD124_chi.LOD1	-0.158763
	9989	C	-31.689731	-6.022480	32.687314	C	1	YLD124_chi.LOD1	-0.147279
	9990	C	-33.406044	-8.211357	32.449751	C	1	YLD124_chi.LOD1	-0.065518
	9991	H	-31.710213	-9.409461	32.989235	H	1	YLD124_chi.LOD1	0.080042
	9992	C	-33.025286	-5.834381	32.324753	C	1	YLD124_chi.LOD1	-0.090746
	9993	H	-31.050364	-5.155174	32.787576	H	1	YLD124_chi.LOD1	0.09871
	9994	C	-33.886688	-6.923295	32.205436	C	1	YLD124_chi.LOD1	-0.09866
	9995	H	-34.067616	-9.068731	32.365751	H	1	YLD124_chi.LOD1	0.104949
	9996	H	-34.926140	-6.770970	31.928570	H	1	YLD124_chi.LOD1	0.102095
	9997	H	-33.389991	-4.826831	32.145744	H	1	YLD124_chi.LOD1	0.105434
	9998	F	-28.601595	-5.894173	34.552077	F	1	YLD124_chi.LOD1	-0.19867
	9999	F	-29.323907	-5.364280	32.577807	F	1	YLD124_chi.LOD1	-0.154403
	10000	F	-27.619999	-6.701326	32.785317	F	1	YLD124_chi.LOD1	-0.186491
	10001	C	21.452436	17.658511	6.164925	C	2	YLD124_chi.LOD1	-0.150166
	10002	C	20.095020	17.537397	6.207484	C	2	YLD124_chi.LOD1	-0.190723
	10003	H	19.611005	16.813797	5.553380	H	2	YLD124_chi.LOD1	0.123134
	10004	H	21.922770	18.398864	6.809918	H	2	YLD124_chi.LOD1	0.111619
	10005	N	25.219674	14.917246	2.871317	N	2	YLD124_chi.LOD1	-0.506176
	10006	C	24.301616	15.552043	3.691052	C	2	YLD124_chi.LOD1	0.404469
	10007	C	22.918017	15.230226	3.648644	C	2	YLD124_chi.LOD1	-0.281203
	10008	C	21.997137	15.897062	4.435213	C	2	YLD124_chi.LOD1	-0.112562
	10009	C	22.377059	16.920800	5.330180	C	2	YLD124_chi.LOD1	0.131862
	10010	C	23.754267	17.217781	5.388002	C	2	YLD124_chi.LOD1	-0.140167
	10011	C	24.690774	16.562577	4.606257	C	2	YLD124_chi.LOD1	-0.26473
	10012	H	22.557756	14.447322	2.993081	H	2	YLD124_chi.LOD1	0.177954
	10013	H	20.953066	15.609248	4.354032	H	2	YLD124_chi.LOD1	0.098859
	10014	H	24.097350	17.991928	6.071079	H	2	YLD124_chi.LOD1	0.103807
	10015	H	25.732190	16.840480	4.710278	H	2	YLD124_chi.LOD1	0.161189
	10016	C	19.202073	18.313209	7.024552	C	2	YLD124_chi.LOD1	0.100982
	10017	C	17.843818	18.123078	6.907545	C	2	YLD124_chi.LOD1	-0.303623
	10018	C	19.730432	19.360244	7.982498	C	2	YLD124_chi.LOD1	0.096207
	10019	H	17.484925	17.357298	6.221501	H	2	YLD124_chi.LOD1	0.124941
	10020	C	18.747817	19.725296	9.119656	C	2	YLD124_chi.LOD1	0.409462
	10021	H	20.675904	19.022674	8.423712	H	2	YLD124_chi.LOD1	-0.020765
	10022	C	17.355990	19.999758	8.503531	C	2	YLD124_chi.LOD1	-0.014279
	10023	H	17.415272	20.915072	7.894406	H	2	YLD124_chi.LOD1	-0.02177
	10024	C	16.861722	18.876228	7.617381	C	2	YLD124_chi.LOD1	0.179445
	10025	C	15.584526	18.502610	7.337892	C	2	YLD124_chi.LOD1	-0.27725
	10026	H	15.354011	17.682600	6.657966	H	2	YLD124_chi.LOD1	0.132087
	10027	C	14.483769	19.167758	7.923717	C	2	YLD124_chi.LOD1	0.141075
	10028	C	13.173213	18.821951	7.664087	C	2	YLD124_chi.LOD1	-0.327608
	10029	H	14.682124	19.996124	8.593877	H	2	YLD124_chi.LOD1	-0.027316
	10030	C	12.014552	19.435064	8.188205	C	2	YLD124_chi.LOD1	0.260653
	10031	C	10.705294	19.110191	7.851538	C	2	YLD124_chi.LOD1	-0.287606
	10032	C	11.938427	20.570772	9.212287	C	2	YLD124_chi.LOD1	-0.056548
	10033	C	9.802968	19.978477	8.559190	C	2	YLD124_chi.LOD1	0.509074
	10034	C	10.364969	18.087138	6.930589	C	2	YLD124_chi.LOD1	0.396907
	10035	O	10.514274	20.851314	9.312322	O	2	YLD124_chi.LOD1	-0.366332
	10036	C	12.653055	21.925665	8.888760	C	2	YLD124_chi.LOD1	0.253806
	10037	C	12.326326	20.146285	10.742430	C	2	YLD124_chi.LOD1	0.598114
	10038	C	8.428475	20.067858	8.570674	C	2	YLD124_chi.LOD1	-0.43234
	10039	N	10.184875	17.233010	6.159511	N	2	YLD124_chi.LOD1	-0.430249
	10040	C	7.600569	19.202015	7.799566	C	2	YLD124_chi.LOD1	0.437474
	10041	C	7.785250	21.054973	9.375279	C	2	YLD124_chi.LOD1	0.49223
	10042	N	6.886859	18.516466	7.185400	N	2	YLD124_chi.LOD1	-0.451871
	10043	N	7.247074	21.857046	10.025724	N	2	YLD124_chi.LOD1	-0.482758
	10044	H	12.989243	18.004205	6.969397	H	2	YLD124_chi.LOD1	0.157364
	10045	H	16.641583	20.211120	9.305981	H	2	YLD124_chi.LOD1	0.040059
	10046	H	19.973426	20.268086	7.408503	H	2	YLD124_chi.LOD1	-0.024244
	10047	C	24.844568	13.860185	2.001726	C	2	YLD124_chi.LOD1	0.240322
	10048	C	26.622042	15.185504	2.947360	C	2	YLD124_chi.LOD1	0.113854
	10049	C	27.425364	14.609043	3.977731	C	2	YLD124_chi.LOD1	0.29958
	10050	C	24.508357	12.615891	2.602508	C	2	YLD124_chi.LOD1	0.285774
	10051	O	24.511800	12.710900	3.946840	O	2	YLD124_chi.LOD1	-0.61175
	10052	O	27.363600	15.256600	5.157740	O	2	YLD124_chi.LOD1	-0.599726
	10053	C	29.417968	15.476482	7.127933	C	2	YLD124_chi.LOD1	0.275329
	10054	C	22.677166	11.136471	5.653072	C	2	YLD124_chi.LOD1	0.358728
	10055	C	21.857268	12.443580	5.728243	C	2	YLD124_chi.LOD1	-0.337707
	10056	H	21.798069	12.950384	4.756989	H	2	YLD124_chi.LOD1	0.059176
	10057	H	20.826530	12.229558	6.045510	H	2	YLD124_chi.LOD1	0.075606
	10058	H	22.276706	13.153552	6.451686	H	2	YLD124_chi.LOD1	0.056098
	10059	C	28.438690	14.555446	7.888764	C	2	YLD124_chi.LOD1	-0.311529
	10060	H	28.962728	14.032584	8.701634	H	2	YLD124_chi.LOD1	0.071087
	10061	H	27.612652	15.115290	8.344922	H	2	YLD124_chi.LOD1	0.058721
	10062	H	28.003432	13.786499	7.238416	H	2	YLD124_chi.LOD1	0.056179
	10063	C	22.672376	10.455301	7.038945	C	2	YLD124_chi.LOD1	-0.279876
	10064	H	23.260780	9.530070	7.038430	H	2	YLD124_chi.LOD1	0.048405
	10065	H	23.080730	11.108856	7.818959	H	2	YLD124_chi.LOD1	0.047411
	10066	H	21.645647	10.195714	7.334992	H	2	YLD124_chi.LOD1	0.054899
	10067	C	22.011197	10.188885	4.631678	C	2	YLD124_chi.LOD1	-0.273001
	10068	H	20.970854	9.983495	4.922988	H	2	YLD124_chi.LOD1	0.0526
	10069	H	21.985300	10.616862	3.621824	H	2	YLD124_chi.LOD1	0.034813
	10070	H	22.525549	9.221994	4.574156	H	2	YLD124_chi.LOD1	0.061699
	10071	C	30.561786	14.623146	6.538009	C	2	YLD124_chi.LOD1	-0.202774
	10072	H	30.188838	13.854297	5.849980	H	2	YLD124_chi.LOD1	0.027959
	10073	H	31.284991	15.239782	5.992796	H	2	YLD124_chi.LOD1	0.030756
	10074	H	31.103998	14.104902	7.342087	H	2	YLD124_chi.LOD1	0.045471
	10075	C	30.017321	16.502675	8.114029	C	2	YLD124_chi.LOD1	-0.266625
	10076	H	29.241469	17.113480	8.591817	H	2	YLD124_chi.LOD1	0.041283
	10077	H	30.564363	15.986223	8.915922	H	2	YLD124_chi.LOD1	0.059445
	10078	H	30.718964	17.179981	7.614665	H	2	YLD124_chi.LOD1	0.054675
	10079	C	29.606321	16.877344	4.365096	C	2	YLD124_chi.LOD1	-0.410828
	10080	H	30.130482	16.013691	3.940715	H	2	YLD124_chi.LOD1	0.093855
	10081	H	29.059310	17.366796	3.549875	H	2	YLD124_chi.LOD1	0.090546
	10082	H	30.364650	17.588273	4.714981	H	2	YLD124_chi.LOD1	0.070213
	10083	C	27.597218	17.875879	6.329183	C	2	YLD124_chi.LOD1	-0.460074
	10084	H	27.124691	18.425146	5.505624	H	2	YLD124_chi.LOD1	0.099819
	10085	H	26.812111	17.617014	7.048288	H	2	YLD124_chi.LOD1	0.10243
	10086	H	28.286376	18.570954	6.823794	H	2	YLD124_chi.LOD1	0.086844
	10087	C	25.295604	10.082815	4.373270	C	2	YLD124_chi.LOD1	-0.477029
	10088	H	26.062869	9.651472	5.025514	H	2	YLD124_chi.LOD1	0.107463
	10089	H	24.555918	9.299357	4.171810	H	2	YLD124_chi.LOD1	0.106999
	10090	H	25.772668	10.342959	3.421033	H	2	YLD124_chi.LOD1	0.090486
	10091	C	25.485701	12.097841	6.582555	C	2	YLD124_chi.LOD1	-0.470103
	10092	H	26.180819	11.314938	6.909753	H	2	YLD124_chi.LOD1	0.112461
	10093	H	26.073416	12.998913	6.372639	H	2	YLD124_chi.LOD1	0.098066
	10094	H	24.832928	12.326612	7.433438	H	2	YLD124_chi.LOD1	0.083138
	10095	Si	24.494800	11.528400	5.149600	Si	2	YLD124_chi.LOD1	0.770043
	10096	Si	28.479800	16.387400	5.724950	Si	2	YLD124_chi.LOD1	0.73989
	10097	H	23.516905	12.289823	2.255946	H	2	YLD124_chi.LOD1	-0.017464
	10098	H	27.064387	14.960771	1.972664	H	2	YLD124_chi.LOD1	0.058354
	10099	H	27.037248	13.587703	4.099697	H	2	YLD124_chi.LOD1	-0.04034
	10100	H	28.474983	14.527947	3.657517	H	2	YLD124_chi.LOD1	-0.007901
	10101	H	26.742537	16.263344	3.098557	H	2	YLD124_chi.LOD1	0.028132
	10102	H	23.984982	14.202946	1.416814	H	2	YLD124_chi.LOD1	-0.011538
	10103	H	25.655934	13.696553	1.286768	H	2	YLD124_chi.LOD1	0.020652
	10104	H	25.232410	11.850391	2.290592	H	2	YLD124_chi.LOD1	-0.064856
	10105	C	18.690871	18.549466	10.080837	C	2	YLD124_chi.LOD1	-0.299384
	10106	H	19.669775	18.369652	10.541211	H	2	YLD124_chi.LOD1	0.066854
	10107	H	17.987274	18.799544	10.883876	H	2	YLD124_chi.LOD1	0.072315
	10108	H	18.357953	17.612302	9.623987	H	2	YLD124_chi.LOD1	0.027971
	10109	C	19.273463	20.967068	9.767149	C	2	YLD124_chi.LOD1	-0.427943
	10110	H	20.269445	20.810379	10.198797	H	2	YLD124_chi.LOD1	0.089807
	10111	H	19.336620	21.816427	9.075951	H	2	YLD124_chi.LOD1	0.091303
	10112	H	18.598522	21.248684	10.584331	H	2	YLD124_chi.LOD1	0.089757
	10113	C	12.467384	22.360505	7.567760	C	2	YLD124_chi.LOD1	-0.158763
	10114	C	13.431557	22.704793	9.754205	C	2	YLD124_chi.LOD1	-0.147279
	10115	C	13.050366	23.541954	7.118450	C	2	YLD124_chi.LOD1	-0.065518
	10116	H	11.860238	21.772186	6.886380	H	2	YLD124_chi.LOD1	0.080042
	10117	C	14.022313	23.885031	9.297494	C	2	YLD124_chi.LOD1	-0.090746
	10118	H	13.582719	22.411912	10.784949	H	2	YLD124_chi.LOD1	0.09871
	10119	C	13.834781	24.308117	7.983030	C	2	YLD124_chi.LOD1	-0.09866
	10120	H	12.891289	23.862521	6.092898	H	2	YLD124_chi.LOD1	0.104949
	10121	H	14.291985	25.229921	7.634378	H	2	YLD124_chi.LOD1	0.102095
	10122	H	14.623272	24.477298	9.981802	H	2	YLD124_chi.LOD1	0.105434
	10123	F	13.657687	20.149327	10.908408	F	2	YLD124_chi.LOD1	-0.19867
	10124	F	11.893706	18.889111	10.930532	F	2	YLD124_chi.LOD1	-0.154403
	10125	F	11.787055	20.916060	11.714216	F	2	YLD124_chi.LOD1	-0.186491
	10126	C	15.181717	-18.610535	12.096243	C	1	YLD124.LOD1	-0.158041
	10127	C	14.857913	-18.480140	13.414279	C	1	YLD124.LOD1	-0.174247
	10128	H	15.469818	-18.989057	14.157431	H	1	YLD124.LOD1	0.11023
	10129	H	14.555337	-18.109424	11.360105	H	1	YLD124.LOD1	0.116594
	10130	N	19.477189	-21.514466	9.712307	N	1	YLD124.LOD1	-0.477879
	10131	C	18.447754	-20.799616	10.301205	C	1	YLD124.LOD1	0.383639
	10132	C	18.272811	-20.771834	11.711348	C	1	YLD124.LOD1	-0.278193
	10133	C	17.227901	-20.080772	12.295935	C	1	YLD124.LOD1	-0.102205
	10134	C	16.285222	-19.358926	11.531966	C	1	YLD124.LOD1	0.126725
	10135	C	16.468855	-19.381250	10.134069	C	1	YLD124.LOD1	-0.148338
	10136	C	17.509153	-20.067842	9.530638	C	1	YLD124.LOD1	-0.248652
	10137	H	18.963603	-21.296456	12.359469	H	1	YLD124.LOD1	0.176041
	10138	H	17.146030	-20.100177	13.378688	H	1	YLD124.LOD1	0.098595
	10139	H	15.770962	-18.835283	9.502823	H	1	YLD124.LOD1	0.105176
	10140	H	17.592560	-20.029995	8.451646	H	1	YLD124.LOD1	0.157607
	10141	C	13.751976	-17.732333	13.947331	C	1	YLD124.LOD1	0.13089
	10142	C	13.534575	-17.728856	15.306624	C	1	YLD124.LOD1	-0.298955
	10143	C	12.812104	-16.967751	13.038785	C	1	YLD124.LOD1	0.000678
	10144	H	14.228030	-18.276067	15.943472	H	1	YLD124.LOD1	0.128536
	10145	C	12.051928	-15.819971	13.743983	C	1	YLD124.LOD1	0.312314
	10146	H	13.364324	-16.556952	12.185224	H	1	YLD124.LOD1	0.009572
	10147	C	11.442858	-16.362399	15.058134	C	1	YLD124.LOD1	0.132423
	10148	H	10.659292	-17.093912	14.806461	H	1	YLD124.LOD1	-0.011706
	10149	C	12.456824	-17.048908	15.948214	C	1	YLD124.LOD1	0.094029
	10150	C	12.475500	-17.156450	17.304559	C	1	YLD124.LOD1	-0.194272
	10151	H	13.253258	-17.707753	17.832781	H	1	YLD124.LOD1	0.118653
	10152	C	11.480048	-16.545854	18.100275	C	1	YLD124.LOD1	0.029031
	10153	C	11.480360	-16.601372	19.479178	C	1	YLD124.LOD1	-0.298661
	10154	H	10.687529	-16.001326	17.600413	H	1	YLD124.LOD1	0.063317
	10155	C	10.553572	-15.989206	20.350574	C	1	YLD124.LOD1	0.24754
	10156	C	10.628173	-15.984809	21.738979	C	1	YLD124.LOD1	-0.281071
	10157	C	9.299701	-15.194996	19.973859	C	1	YLD124.LOD1	-0.098074
	10158	C	9.538883	-15.210581	22.270766	C	1	YLD124.LOD1	0.526995
	10159	C	11.655224	-16.634193	22.469694	C	1	YLD124.LOD1	0.389724
	10160	O	8.801337	-14.709250	21.250300	O	1	YLD124.LOD1	-0.351072
	10161	C	8.058060	-16.094525	19.426567	C	1	YLD124.LOD1	0.617997
	10162	C	9.451837	-13.953988	19.034755	C	1	YLD124.LOD1	0.253109
	10163	C	9.171194	-14.901289	23.561582	C	1	YLD124.LOD1	-0.451385
	10164	N	12.540155	-17.192778	22.980985	N	1	YLD124.LOD1	-0.428829
	10165	F	7.903664	-17.113143	20.285842	F	1	YLD124.LOD1	-0.200469
	10166	F	6.879408	-15.459863	19.325455	F	1	YLD124.LOD1	-0.158364
	10167	F	8.349349	-16.617891	18.214825	F	1	YLD124.LOD1	-0.193377
	10168	C	10.627121	-13.983033	18.269297	C	1	YLD124.LOD1	-0.158716
	10169	C	8.619861	-12.830023	18.955984	C	1	YLD124.LOD1	-0.162688
	10170	C	9.895495	-15.371043	24.694936	C	1	YLD124.LOD1	0.447489
	10171	C	8.027495	-14.082384	23.800141	C	1	YLD124.LOD1	0.491336
	10172	H	11.286321	-14.844122	18.325815	H	1	YLD124.LOD1	0.085247
	10173	C	10.961547	-12.918140	17.437780	C	1	YLD124.LOD1	-0.074329
	10174	C	8.953745	-11.767044	18.113136	C	1	YLD124.LOD1	-0.055824
	10175	H	7.714693	-12.762977	19.545376	H	1	YLD124.LOD1	0.099228
	10176	N	10.458115	-15.732629	25.648487	N	1	YLD124.LOD1	-0.454587
	10177	N	7.097788	-13.413144	24.009403	N	1	YLD124.LOD1	-0.481156
	10178	H	11.877813	-12.958717	16.855907	H	1	YLD124.LOD1	0.111202
	10179	C	10.121408	-11.805711	17.353342	C	1	YLD124.LOD1	-0.106678
	10180	H	8.298393	-10.901911	18.064556	H	1	YLD124.LOD1	0.095951
	10181	H	10.379565	-10.973777	16.704047	H	1	YLD124.LOD1	0.103827
	10182	H	12.287784	-17.143155	19.968767	H	1	YLD124.LOD1	0.159396
	10183	H	10.941370	-15.545373	15.587032	H	1	YLD124.LOD1	-0.052081
	10184	H	12.083537	-17.675647	12.613873	H	1	YLD124.LOD1	-0.003289
	10185	C	20.475041	-22.169836	10.477789	C	1	YLD124.LOD1	0.198954
	10186	C	19.713854	-21.517370	8.303656	C	1	YLD124.LOD1	0.115128
	10187	C	20.674789	-20.603117	7.785012	C	1	YLD124.LOD1	0.306486
	10188	C	21.504670	-21.414016	11.117396	C	1	YLD124.LOD1	0.28632
	10189	O	21.102300	-20.776700	12.233900	O	1	YLD124.LOD1	-0.606883
	10190	O	21.162800	-19.816000	8.763440	O	1	YLD124.LOD1	-0.600198
	10191	C	23.091944	-17.744668	8.658281	C	1	YLD124.LOD1	0.267162
	10192	C	20.919316	-19.722516	15.010981	C	1	YLD124.LOD1	0.369124
	10193	C	21.164803	-20.117340	16.484455	C	1	YLD124.LOD1	-0.324271
	10194	H	22.222212	-20.330276	16.685310	H	1	YLD124.LOD1	0.053925
	10195	H	20.867177	-19.296478	17.152670	H	1	YLD124.LOD1	0.070181
	10196	H	20.583652	-20.999825	16.778238	H	1	YLD124.LOD1	0.052098
	10197	C	23.304430	-16.214572	8.668147	C	1	YLD124.LOD1	-0.316887
	10198	H	24.375451	-15.979959	8.587217	H	1	YLD124.LOD1	0.07213
	10199	H	22.800823	-15.721146	7.827511	H	1	YLD124.LOD1	0.059956
	10200	H	22.941311	-15.752347	9.594511	H	1	YLD124.LOD1	0.057948
	10201	C	19.420789	-19.405259	14.816464	C	1	YLD124.LOD1	-0.260833
	10202	H	19.195472	-19.128339	13.779827	H	1	YLD124.LOD1	0.041714
	10203	H	18.784712	-20.259350	15.077558	H	1	YLD124.LOD1	0.041636
	10204	H	19.119126	-18.565043	15.458577	H	1	YLD124.LOD1	0.048242
	10205	C	21.742737	-18.455539	14.693071	C	1	YLD124.LOD1	-0.256632
	10206	H	21.463700	-17.637604	15.373152	H	1	YLD124.LOD1	0.046696
	10207	H	22.820897	-18.620102	14.810653	H	1	YLD124.LOD1	0.030906
	10208	H	21.566613	-18.098004	13.671339	H	1	YLD124.LOD1	0.051975
	10209	C	23.852175	-18.368497	9.848921	C	1	YLD124.LOD1	-0.203727
	10210	H	23.512135	-17.962541	10.809658	H	1	YLD124.LOD1	0.027457
	10211	H	23.728912	-19.456695	9.881701	H	1	YLD124.LOD1	0.031775
	10212	H	24.927845	-18.155673	9.767904	H	1	YLD124.LOD1	0.046776
	10213	C	23.656533	-18.325172	7.343341	C	1	YLD124.LOD1	-0.249027
	10214	H	23.173094	-17.886901	6.461466	H	1	YLD124.LOD1	0.037596
	10215	H	24.732438	-18.112805	7.263696	H	1	YLD124.LOD1	0.055765
	10216	H	23.526127	-19.411837	7.292659	H	1	YLD124.LOD1	0.04836
	10217	C	20.258196	-17.451910	7.391947	C	1	YLD124.LOD1	-0.409962
	10218	H	20.651553	-17.796226	6.428890	H	1	YLD124.LOD1	0.090944
	10219	H	19.203615	-17.748869	7.445819	H	1	YLD124.LOD1	0.090896
	10220	H	20.283258	-16.355367	7.389185	H	1	YLD124.LOD1	0.069902
	10221	C	20.493402	-17.519026	10.366383	C	1	YLD124.LOD1	-0.458602
	10222	H	19.436087	-17.797494	10.454434	H	1	YLD124.LOD1	0.097974
	10223	H	21.017552	-17.923670	11.239430	H	1	YLD124.LOD1	0.103309
	10224	H	20.543813	-16.424913	10.424896	H	1	YLD124.LOD1	0.085827
	10225	C	20.359452	-22.648374	14.134894	C	1	YLD124.LOD1	-0.493974
	10226	H	19.307617	-22.445037	13.905761	H	1	YLD124.LOD1	0.11158
	10227	H	20.683155	-23.474790	13.491707	H	1	YLD124.LOD1	0.113577
	10228	H	20.416473	-22.992954	15.173937	H	1	YLD124.LOD1	0.09477
	10229	C	23.172095	-21.609148	14.053249	C	1	YLD124.LOD1	-0.483575
	10230	H	23.452444	-22.424746	13.375572	H	1	YLD124.LOD1	0.116965
	10231	H	23.845912	-20.767399	13.857231	H	1	YLD124.LOD1	0.100121
	10232	H	23.370526	-21.954165	15.075036	H	1	YLD124.LOD1	0.088084
	10233	Si	21.401500	-21.179000	13.844500	Si	1	YLD124.LOD1	0.763339
	10234	Si	21.218500	-18.129900	8.797850	Si	1	YLD124.LOD1	0.748472
	10235	H	22.377372	-22.043551	11.345207	H	1	YLD124.LOD1	-0.009815
	10236	H	20.009364	-22.529571	8.013306	H	1	YLD124.LOD1	0.057511
	10237	H	21.497117	-21.159084	7.312167	H	1	YLD124.LOD1	-0.045737
	10238	H	20.210229	-19.976601	7.008813	H	1	YLD124.LOD1	-0.011652
	10239	H	18.754308	-21.323995	7.812730	H	1	YLD124.LOD1	0.023801
	10240	H	19.971964	-22.678601	11.306899	H	1	YLD124.LOD1	-0.001966
	10241	H	20.920174	-22.955361	9.860981	H	1	YLD124.LOD1	0.031172
	10242	H	21.819169	-20.677468	10.365107	H	1	YLD124.LOD1	-0.066029
	10243	C	13.050592	-14.704485	14.032395	C	1	YLD124.LOD1	-0.185058
	10244	H	13.463063	-14.296484	13.101809	H	1	YLD124.LOD1	0.04722
	10245	H	12.518701	-13.893719	14.544478	H	1	YLD124.LOD1	0.027573
	10246	H	13.889310	-15.007550	14.666806	H	1	YLD124.LOD1	0.00699
	10247	C	10.963844	-15.381725	12.819433	C	1	YLD124.LOD1	-0.347891
	10248	H	11.362689	-15.008480	11.868337	H	1	YLD124.LOD1	0.075067
	10249	H	10.249656	-16.182828	12.592899	H	1	YLD124.LOD1	0.071859
	10250	H	10.409834	-14.561469	13.291641	H	1	YLD124.LOD1	0.077505
	10251	C	4.305199	25.626119	19.860996	C	2	YLD124.LOD1	-0.158041
	10252	C	4.095320	25.551124	18.515857	C	2	YLD124.LOD1	-0.174247
	10253	H	4.938540	25.323977	17.865409	H	2	YLD124.LOD1	0.11023
	10254	H	3.458649	25.867784	20.501553	H	2	YLD124.LOD1	0.116594
	10255	N	9.136572	24.864001	22.801074	N	2	YLD124.LOD1	-0.477879
	10256	C	7.966071	25.031030	22.080257	C	2	YLD124.LOD1	0.383639
	10257	C	7.938712	24.901522	20.665209	C	2	YLD124.LOD1	-0.278193
	10258	C	6.775170	25.096399	19.944558	C	2	YLD124.LOD1	-0.102205
	10259	C	5.551888	25.423810	20.568849	C	2	YLD124.LOD1	0.126725
	10260	C	5.581958	25.541315	21.973706	C	2	YLD124.LOD1	-0.148338
	10261	C	6.737642	25.349956	22.712308	C	2	YLD124.LOD1	-0.248652
	10262	H	8.838794	24.643819	20.121221	H	2	YLD124.LOD1	0.176041
	10263	H	6.819339	24.986279	18.865041	H	2	YLD124.LOD1	0.098595
	10264	H	4.662642	25.787023	22.501051	H	2	YLD124.LOD1	0.105176
	10265	H	6.681131	25.445984	23.789433	H	2	YLD124.LOD1	0.157607
	10266	C	2.845004	25.760842	17.838223	C	2	YLD124.LOD1	0.13089
	10267	C	2.803353	25.686886	16.464269	C	2	YLD124.LOD1	-0.298955
	10268	C	1.580668	26.081960	18.607468	C	2	YLD124.LOD1	0.000678
	10269	H	3.721066	25.444278	15.930566	H	2	YLD124.LOD1	0.128536
	10270	C	0.278227	25.744760	17.844241	C	2	YLD124.LOD1	0.312314
	10271	H	1.578309	25.551158	19.566902	H	2	YLD124.LOD1	0.009572
	10272	C	0.376066	26.327247	16.414793	C	2	YLD124.LOD1	0.132423
	10273	H	0.375432	27.426264	16.482510	H	2	YLD124.LOD1	-0.011706
	10274	C	1.630574	25.903365	15.681172	C	2	YLD124.LOD1	0.094029
	10275	C	1.828408	25.733417	14.345575	C	2	YLD124.LOD1	-0.194272
	10276	H	2.796935	25.450848	13.933298	H	2	YLD124.LOD1	0.118653
	10277	C	0.773933	25.910826	13.421712	C	2	YLD124.LOD1	0.029031
	10278	C	0.922781	25.715546	12.063711	C	2	YLD124.LOD1	-0.298661
	10279	H	-0.197213	26.203836	13.803131	H	2	YLD124.LOD1	0.063317
	10280	C	-0.081139	25.829481	11.077720	C	2	YLD124.LOD1	0.24754
	10281	C	0.073642	25.538743	9.726881	C	2	YLD124.LOD1	-0.281071
	10282	C	-1.535476	26.268377	11.270471	C	2	YLD124.LOD1	-0.098074
	10283	C	-1.185234	25.718942	9.054915	C	2	YLD124.LOD1	0.526995
	10284	C	1.296954	25.107374	9.154251	C	2	YLD124.LOD1	0.389724
	10285	O	-2.128294	26.088773	9.955204	O	2	YLD124.LOD1	-0.351072
	10286	C	-1.740296	27.861094	11.538275	C	2	YLD124.LOD1	0.617997
	10287	C	-2.426409	25.485656	12.289675	C	2	YLD124.LOD1	0.253109
	10288	C	-1.559034	25.560508	7.738771	C	2	YLD124.LOD1	-0.451385
	10289	N	2.341067	24.754992	8.777166	N	2	YLD124.LOD1	-0.428829
	10290	F	-1.021812	28.510038	10.609605	F	2	YLD124.LOD1	-0.200469
	10291	F	-3.004772	28.305968	11.464593	F	2	YLD124.LOD1	-0.158364
	10292	F	-1.252741	28.204796	12.751221	F	2	YLD124.LOD1	-0.193377
	10293	C	-1.678386	24.735827	13.209610	C	2	YLD124.LOD1	-0.158716
	10294	C	-3.823691	25.393485	12.317859	C	2	YLD124.LOD1	-0.162688
	10295	C	-0.639399	25.160107	6.726978	C	2	YLD124.LOD1	0.447489
	10296	C	-2.910173	25.799544	7.347812	C	2	YLD124.LOD1	0.491336
	10297	H	-0.593956	24.790667	13.194868	H	2	YLD124.LOD1	0.085247
	10298	C	-2.309976	23.918039	14.142121	C	2	YLD124.LOD1	-0.074329
	10299	C	-4.454697	24.578991	13.261377	C	2	YLD124.LOD1	-0.055824
	10300	H	-4.433779	25.942117	11.612166	H	2	YLD124.LOD1	0.099228
	10301	N	0.078208	24.834546	5.869310	N	2	YLD124.LOD1	-0.454587
	10302	N	-4.009945	25.988891	7.015130	N	2	YLD124.LOD1	-0.481156
	10303	H	-1.712484	23.342888	14.843526	H	2	YLD124.LOD1	0.111202
	10304	C	-3.704032	23.840263	14.174066	C	2	YLD124.LOD1	-0.106678
	10305	H	-5.539345	24.517498	13.269057	H	2	YLD124.LOD1	0.095951
	10306	H	-4.199452	23.203659	14.901828	H	2	YLD124.LOD1	0.103827
	10307	H	1.901039	25.411646	11.695177	H	2	YLD124.LOD1	0.159396
	10308	H	-0.522510	26.054012	15.852068	H	2	YLD124.LOD1	-0.052081
	10309	H	1.585731	27.154550	18.856468	H	2	YLD124.LOD1	-0.003289
	10310	C	10.355992	24.450625	22.205175	C	2	YLD124.LOD1	0.198954
	10311	C	9.170172	24.935006	24.226760	C	2	YLD124.LOD1	0.115128
	10312	C	8.954577	23.772017	25.030395	C	2	YLD124.LOD1	0.306486
	10313	C	10.615313	23.054155	22.096341	C	2	YLD124.LOD1	0.28632
	10314	O	9.477800	22.352600	21.927200	O	2	YLD124.LOD1	-0.606883
	10315	O	10.048900	23.005600	25.203600	O	2	YLD124.LOD1	-0.600198
	10316	C	11.235556	21.867460	27.509961	C	2	YLD124.LOD1	0.267162
	10317	C	7.181758	20.646861	22.748990	C	2	YLD124.LOD1	0.369124
	10318	C	6.813370	19.192961	23.120124	C	2	YLD124.LOD1	-0.324271
	10319	H	7.329034	18.853950	24.027297	H	2	YLD124.LOD1	0.053925
	10320	H	5.733759	19.111365	23.311670	H	2	YLD124.LOD1	0.070181
	10321	H	7.052810	18.487559	22.315202	H	2	YLD124.LOD1	0.052098
	10322	C	12.341018	22.035964	28.575795	C	2	YLD124.LOD1	-0.316887
	10323	H	12.319055	21.193156	29.281396	H	2	YLD124.LOD1	0.07213
	10324	H	13.344052	22.060038	28.131837	H	2	YLD124.LOD1	0.059956
	10325	H	12.212560	22.953277	29.163752	H	2	YLD124.LOD1	0.057948
	10326	C	6.392791	21.061209	21.488070	C	2	YLD124.LOD1	-0.260833
	10327	H	6.629508	22.086283	21.179432	H	2	YLD124.LOD1	0.041714
	10328	H	6.604300	20.401519	20.638182	H	2	YLD124.LOD1	0.041636
	10329	H	5.310780	21.012235	21.678143	H	2	YLD124.LOD1	0.048242
	10330	C	6.779231	21.574051	23.916299	C	2	YLD124.LOD1	-0.256632
	10331	H	5.703756	21.480040	24.125835	H	2	YLD124.LOD1	0.046696
	10332	H	7.311797	21.329956	24.843729	H	2	YLD124.LOD1	0.030906
	10333	H	6.970678	22.629159	23.686335	H	2	YLD124.LOD1	0.051975
	10334	C	9.860911	21.812457	28.211432	C	2	YLD124.LOD1	-0.203727
	10335	H	9.663477	22.719011	28.796771	H	2	YLD124.LOD1	0.027457
	10336	H	9.044016	21.693354	27.491057	H	2	YLD124.LOD1	0.031775
	10337	H	9.821388	20.961208	28.906226	H	2	YLD124.LOD1	0.046776
	10338	C	11.463824	20.542837	26.749645	C	2	YLD124.LOD1	-0.249027
	10339	H	12.445411	20.515430	26.260530	H	2	YLD124.LOD1	0.037596
	10340	H	11.423065	19.692089	27.445046	H	2	YLD124.LOD1	0.055765
	10341	H	10.700536	20.381958	25.980279	H	2	YLD124.LOD1	0.04836
	10342	C	12.887652	23.447831	25.390395	C	2	YLD124.LOD1	-0.409962
	10343	H	13.120858	22.511104	24.871821	H	2	YLD124.LOD1	0.090944
	10344	H	12.874946	24.248664	24.640908	H	2	YLD124.LOD1	0.090896
	10345	H	13.715467	23.663600	26.076842	H	2	YLD124.LOD1	0.069902
	10346	C	10.972192	24.949191	27.117654	C	2	YLD124.LOD1	-0.458602
	10347	H	10.953353	25.775745	26.396776	H	2	YLD124.LOD1	0.097974
	10348	H	10.012021	24.946614	27.645617	H	2	YLD124.LOD1	0.103309
	10349	H	11.754984	25.179447	27.850641	H	2	YLD124.LOD1	0.085827
	10350	C	9.536610	19.772222	20.923812	C	2	YLD124.LOD1	-0.493974
	10351	H	9.045121	20.129044	20.012044	H	2	YLD124.LOD1	0.11158
	10352	H	10.618729	19.828650	20.758675	H	2	YLD124.LOD1	0.113577
	10353	H	9.274420	18.716051	21.055557	H	2	YLD124.LOD1	0.09477
	10354	C	10.051036	20.275249	23.835837	C	2	YLD124.LOD1	-0.483575
	10355	H	11.124124	20.368501	23.628886	H	2	YLD124.LOD1	0.116965
	10356	H	9.831324	20.872193	24.728237	H	2	YLD124.LOD1	0.100121
	10357	H	9.860167	19.225930	24.090709	H	2	YLD124.LOD1	0.088084
	10358	Si	9.067310	20.778200	22.372000	Si	2	YLD124.LOD1	0.763339
	10359	Si	11.294300	23.346000	26.290100	Si	2	YLD124.LOD1	0.748472
	10360	H	11.307256	22.841608	21.268175	H	2	YLD124.LOD1	-0.009815
	10361	H	10.168622	25.265399	24.526955	H	2	YLD124.LOD1	0.057511
	10362	H	8.530135	24.038094	26.009147	H	2	YLD124.LOD1	-0.045737
	10363	H	8.190149	23.200188	24.483142	H	2	YLD124.LOD1	-0.011652
	10364	H	8.478830	25.727336	24.532357	H	2	YLD124.LOD1	0.023801
	10365	H	10.368061	24.846617	21.184197	H	2	YLD124.LOD1	-0.001966
	10366	H	11.177411	24.941666	22.734131	H	2	YLD124.LOD1	0.031172
	10367	H	11.109167	22.737884	23.025551	H	2	YLD124.LOD1	-0.066029
	10368	C	0.140860	24.226860	17.799869	C	2	YLD124.LOD1	-0.185058
	10369	H	0.041323	23.812015	18.810108	H	2	YLD124.LOD1	0.04722
	10370	H	-0.774679	23.982640	17.247943	H	2	YLD124.LOD1	0.027573
	10371	H	0.974469	23.716115	17.307923	H	2	YLD124.LOD1	0.00699
	10372	C	-0.844514	26.394267	18.584618	C	2	YLD124.LOD1	-0.347891
	10373	H	-0.928998	26.016003	19.610655	H	2	YLD124.LOD1	0.075067
	10374	H	-0.745349	27.485448	18.636010	H	2	YLD124.LOD1	0.071859
	10375	H	-1.784952	26.166413	18.068491	H	2	YLD124.LOD1	0.077505
	10376	C	0.715607	-28.497939	-19.647779	C	1	YLD124_chi.LOD1	-0.150166
	10377	C	-0.235652	-29.232694	-20.291440	C	1	YLD124_chi.LOD1	-0.190723
	10378	H	-1.282344	-29.079242	-20.033358	H	1	YLD124_chi.LOD1	0.123134
	10379	H	1.759699	-28.674217	-19.901059	H	1	YLD124_chi.LOD1	0.111619
	10380	N	0.091909	-24.604043	-15.524305	N	1	YLD124_chi.LOD1	-0.506176
	10381	C	0.230749	-25.524541	-16.549571	C	1	YLD124_chi.LOD1	0.404469
	10382	C	-0.898118	-26.134492	-17.160578	C	1	YLD124_chi.LOD1	-0.281203
	10383	C	-0.755633	-27.086853	-18.152590	C	1	YLD124_chi.LOD1	-0.112562
	10384	C	0.511153	-27.496482	-18.622486	C	1	YLD124_chi.LOD1	0.131862
	10385	C	1.627112	-26.868791	-18.031823	C	1	YLD124_chi.LOD1	-0.140167
	10386	C	1.504178	-25.914999	-17.035515	C	1	YLD124_chi.LOD1	-0.26473
	10387	H	-1.900443	-25.859403	-16.856996	H	1	YLD124_chi.LOD1	0.177954
	10388	H	-1.656368	-27.520476	-18.577041	H	1	YLD124_chi.LOD1	0.098859
	10389	H	2.624539	-27.143200	-18.368637	H	1	YLD124_chi.LOD1	0.103807
	10390	H	2.406869	-25.471635	-16.634046	H	1	YLD124_chi.LOD1	0.161189
	10391	C	0.005589	-30.246936	-21.281367	C	1	YLD124_chi.LOD1	0.100982
	10392	C	-1.057403	-30.955041	-21.794524	C	1	YLD124_chi.LOD1	-0.303623
	10393	C	1.411677	-30.572924	-21.739356	C	1	YLD124_chi.LOD1	0.096207
	10394	H	-2.061366	-30.697297	-21.460599	H	1	YLD124_chi.LOD1	0.124941
	10395	C	1.478017	-31.273250	-23.116695	C	1	YLD124_chi.LOD1	0.409462
	10396	H	2.016391	-29.658828	-21.775304	H	1	YLD124_chi.LOD1	-0.020765
	10397	C	0.464925	-32.441853	-23.128310	C	1	YLD124_chi.LOD1	-0.014279
	10398	H	0.806800	-33.210808	-22.418256	H	1	YLD124_chi.LOD1	-0.02177
	10399	C	-0.935014	-32.024167	-22.731330	C	1	YLD124_chi.LOD1	0.179445
	10400	C	-2.127636	-32.567524	-23.093944	C	1	YLD124_chi.LOD1	-0.27725
	10401	H	-3.077794	-32.187968	-22.718458	H	1	YLD124_chi.LOD1	0.132087
	10402	C	-2.191078	-33.662041	-23.985733	C	1	YLD124_chi.LOD1	0.141075
	10403	C	-3.379985	-34.244027	-24.376040	C	1	YLD124_chi.LOD1	-0.327608
	10404	H	-1.261165	-34.069422	-24.365141	H	1	YLD124_chi.LOD1	-0.027316
	10405	C	-3.540230	-35.344116	-25.246230	C	1	YLD124_chi.LOD1	0.260653
	10406	C	-4.748487	-35.954032	-25.564287	C	1	YLD124_chi.LOD1	-0.287606
	10407	C	-2.449495	-36.099592	-26.010379	C	1	YLD124_chi.LOD1	-0.056548
	10408	C	-4.503423	-37.063241	-26.446604	C	1	YLD124_chi.LOD1	0.509074
	10409	C	-5.999918	-35.524805	-25.054100	C	1	YLD124_chi.LOD1	0.396907
	10410	O	-3.172253	-37.175790	-26.670940	O	1	YLD124_chi.LOD1	-0.366332
	10411	C	-1.281670	-36.757697	-25.201670	C	1	YLD124_chi.LOD1	0.253806
	10412	C	-1.800892	-35.283898	-27.269522	C	1	YLD124_chi.LOD1	0.598114
	10413	C	-5.349445	-37.975918	-27.037044	C	1	YLD124_chi.LOD1	-0.43234
	10414	N	-6.977074	-35.102803	-24.581225	N	1	YLD124_chi.LOD1	-0.430249
	10415	C	-6.760895	-37.943435	-26.846061	C	1	YLD124_chi.LOD1	0.437474
	10416	C	-4.818586	-39.001532	-27.874794	C	1	YLD124_chi.LOD1	0.49223
	10417	N	-7.918364	-37.954112	-26.716789	N	1	YLD124_chi.LOD1	-0.451871
	10418	N	-4.398908	-39.844986	-28.559258	N	1	YLD124_chi.LOD1	-0.482758
	10419	H	-4.304410	-33.839993	-23.966965	H	1	YLD124_chi.LOD1	0.157364
	10420	H	0.469360	-32.913310	-24.116583	H	1	YLD124_chi.LOD1	0.040059
	10421	H	1.885152	-31.217353	-20.982240	H	1	YLD124_chi.LOD1	-0.024244
	10422	C	-1.173115	-24.146551	-15.069600	C	1	YLD124_chi.LOD1	0.240322
	10423	C	1.215641	-23.936844	-14.944389	C	1	YLD124_chi.LOD1	0.113854
	10424	C	1.825758	-22.845310	-15.630344	C	1	YLD124_chi.LOD1	0.29958
	10425	C	-1.789801	-23.089064	-15.793485	C	1	YLD124_chi.LOD1	0.285774
	10426	O	-1.163730	-22.874200	-16.967400	O	1	YLD124_chi.LOD1	-0.61175
	10427	O	2.392710	-23.202200	-16.799400	O	1	YLD124_chi.LOD1	-0.599726
	10428	C	4.058796	-23.090367	-19.118975	C	1	YLD124_chi.LOD1	0.275329
	10429	C	-3.382010	-21.852365	-18.671228	C	1	YLD124_chi.LOD1	0.358728
	10430	C	-3.905785	-20.410247	-18.851148	C	1	YLD124_chi.LOD1	-0.337707
	10431	H	-3.414058	-19.893244	-19.684576	H	1	YLD124_chi.LOD1	0.059176
	10432	H	-4.983894	-20.420143	-19.066709	H	1	YLD124_chi.LOD1	0.075606
	10433	H	-3.762710	-19.802965	-17.948874	H	1	YLD124_chi.LOD1	0.056098
	10434	C	2.624651	-23.284074	-19.659214	C	1	YLD124_chi.LOD1	-0.311529
	10435	H	2.628601	-23.276730	-20.758617	H	1	YLD124_chi.LOD1	0.071087
	10436	H	2.188765	-24.240511	-19.344449	H	1	YLD124_chi.LOD1	0.058721
	10437	H	1.947964	-22.484195	-19.333686	H	1	YLD124_chi.LOD1	0.056179
	10438	C	-4.153824	-22.531355	-17.518868	C	1	YLD124_chi.LOD1	-0.279876
	10439	H	-3.800907	-23.554194	-17.341320	H	1	YLD124_chi.LOD1	0.048405
	10440	H	-4.056532	-21.977700	-16.577426	H	1	YLD124_chi.LOD1	0.047411
	10441	H	-5.226199	-22.586527	-17.755869	H	1	YLD124_chi.LOD1	0.054899
	10442	C	-3.638614	-22.641529	-19.973555	C	1	YLD124_chi.LOD1	-0.273001
	10443	H	-4.711362	-22.640846	-20.215572	H	1	YLD124_chi.LOD1	0.0526
	10444	H	-3.113247	-22.208023	-20.833615	H	1	YLD124_chi.LOD1	0.034813
	10445	H	-3.330052	-23.690151	-19.884534	H	1	YLD124_chi.LOD1	0.061699
	10446	C	4.612125	-21.739639	-19.622833	C	1	YLD124_chi.LOD1	-0.202774
	10447	H	3.992398	-20.894412	-19.298591	H	1	YLD124_chi.LOD1	0.027959
	10448	H	5.633185	-21.563958	-19.266331	H	1	YLD124_chi.LOD1	0.030756
	10449	H	4.634885	-21.723629	-20.722078	H	1	YLD124_chi.LOD1	0.045471
	10450	C	4.957703	-24.228160	-19.650079	C	1	YLD124_chi.LOD1	-0.266625
	10451	H	4.587547	-25.216507	-19.350968	H	1	YLD124_chi.LOD1	0.041283
	10452	H	4.985752	-24.210332	-20.749126	H	1	YLD124_chi.LOD1	0.059445
	10453	H	5.987488	-24.130898	-19.288836	H	1	YLD124_chi.LOD1	0.054675
	10454	C	4.764393	-21.601698	-16.485996	C	1	YLD124_chi.LOD1	-0.410828
	10455	H	4.298512	-20.695693	-16.889542	H	1	YLD124_chi.LOD1	0.093855
	10456	H	4.647935	-21.577042	-15.395492	H	1	YLD124_chi.LOD1	0.090546
	10457	H	5.839503	-21.544960	-16.695327	H	1	YLD124_chi.LOD1	0.070213
	10458	C	4.902918	-24.584004	-16.528210	C	1	YLD124_chi.LOD1	-0.460074
	10459	H	5.971023	-24.564408	-16.777190	H	1	YLD124_chi.LOD1	0.099819
	10460	H	4.817995	-24.639848	-15.437254	H	1	YLD124_chi.LOD1	0.10243
	10461	H	4.494604	-25.513734	-16.942444	H	1	YLD124_chi.LOD1	0.086844
	10462	C	-0.994482	-20.182294	-17.617896	C	1	YLD124_chi.LOD1	-0.477029
	10463	H	0.064289	-20.172336	-17.336685	H	1	YLD124_chi.LOD1	0.107463
	10464	H	-1.137131	-19.419001	-18.391566	H	1	YLD124_chi.LOD1	0.106999
	10465	H	-1.577362	-19.879470	-16.740077	H	1	YLD124_chi.LOD1	0.090486
	10466	C	-0.493836	-22.275563	-19.700009	C	1	YLD124_chi.LOD1	-0.470103
	10467	H	-0.705617	-21.606084	-20.542703	H	1	YLD124_chi.LOD1	0.112461
	10468	H	0.584808	-22.239537	-19.508614	H	1	YLD124_chi.LOD1	0.098066
	10469	H	-0.731602	-23.294252	-20.028936	H	1	YLD124_chi.LOD1	0.083138
	10470	Si	-1.504760	-21.821200	-18.240200	Si	1	YLD124_chi.LOD1	0.770043
	10471	Si	4.029110	-23.120200	-17.201500	Si	1	YLD124_chi.LOD1	0.73989
	10472	H	-2.849662	-23.319742	-15.974834	H	1	YLD124_chi.LOD1	-0.017464
	10473	H	0.943490	-23.631309	-13.930096	H	1	YLD124_chi.LOD1	0.058354
	10474	H	1.017167	-22.125063	-15.820267	H	1	YLD124_chi.LOD1	-0.04034
	10475	H	2.573261	-22.344017	-14.997288	H	1	YLD124_chi.LOD1	-0.007901
	10476	H	2.017610	-24.674908	-14.838439	H	1	YLD124_chi.LOD1	0.028132
	10477	H	-1.852801	-25.004622	-15.084972	H	1	YLD124_chi.LOD1	-0.011538
	10478	H	-1.075189	-23.852103	-14.020808	H	1	YLD124_chi.LOD1	0.020652
	10479	H	-1.752987	-22.172183	-15.188912	H	1	YLD124_chi.LOD1	-0.064856
	10480	C	1.128270	-30.244449	-24.179165	C	1	YLD124_chi.LOD1	-0.299384
	10481	H	1.860585	-29.428327	-24.192934	H	1	YLD124_chi.LOD1	0.066854
	10482	H	1.163966	-30.739021	-25.157216	H	1	YLD124_chi.LOD1	0.072315
	10483	H	0.134239	-29.801106	-24.064401	H	1	YLD124_chi.LOD1	0.027971
	10484	C	2.868925	-31.801831	-23.269606	C	1	YLD124_chi.LOD1	-0.427943
	10485	H	3.614414	-30.997729	-23.246858	H	1	YLD124_chi.LOD1	0.089807
	10486	H	3.137379	-32.530941	-22.495341	H	1	YLD124_chi.LOD1	0.091303
	10487	H	2.949049	-32.300786	-24.242881	H	1	YLD124_chi.LOD1	0.089757
	10488	C	-1.703748	-37.423071	-24.040753	C	1	YLD124_chi.LOD1	-0.158763
	10489	C	0.084274	-36.738280	-25.511379	C	1	YLD124_chi.LOD1	-0.147279
	10490	C	-0.783752	-38.048986	-23.204449	C	1	YLD124_chi.LOD1	-0.065518
	10491	H	-2.759882	-37.454161	-23.790477	H	1	YLD124_chi.LOD1	0.080042
	10492	C	1.005467	-37.359688	-24.665332	C	1	YLD124_chi.LOD1	-0.090746
	10493	H	0.446390	-36.251034	-26.407218	H	1	YLD124_chi.LOD1	0.09871
	10494	C	0.577721	-38.016073	-23.512867	C	1	YLD124_chi.LOD1	-0.09866
	10495	H	-1.131773	-38.561607	-22.312302	H	1	YLD124_chi.LOD1	0.104949
	10496	H	1.297899	-38.502679	-22.861043	H	1	YLD124_chi.LOD1	0.102095
	10497	H	2.061217	-37.334972	-24.920265	H	1	YLD124_chi.LOD1	0.105434
	10498	F	-2.078036	-35.872000	-28.443153	F	1	YLD124_chi.LOD1	-0.19867
	10499	F	-0.470010	-35.120484	-27.198268	F	1	YLD124_chi.LOD1	-0.154403
	10500	F	-2.365680	-34.055626	-27.279317	F	1	YLD124_chi.LOD1	-0.186491
	10501	C	23.209710	-8.374493	12.598914	C	2	YLD124_chi.LOD1	-0.150166
	10502	C	23.881554	-7.209842	12.825349	C	2	YLD124_chi.LOD1	-0.190723
	10503	H	24.554656	-6.833218	12.056710	H	2	YLD124_chi.LOD1	0.123134
	10504	H	22.554401	-8.750484	13.382849	H	2	YLD124_chi.LOD1	0.111619
	10505	N	23.428541	-11.847717	8.077489	N	2	YLD124_chi.LOD1	-0.506176
	10506	C	23.355282	-10.981016	9.155091	C	2	YLD124_chi.LOD1	0.404469
	10507	C	24.076214	-9.756465	9.176125	C	2	YLD124_chi.LOD1	-0.281203
	10508	C	24.037456	-8.914471	10.271994	C	2	YLD124_chi.LOD1	-0.112562
	10509	C	23.273837	-9.213948	11.421143	C	2	YLD124_chi.LOD1	0.131862
	10510	C	22.539264	-10.416985	11.384416	C	2	YLD124_chi.LOD1	-0.140167
	10511	C	22.567691	-11.273922	10.297074	C	2	YLD124_chi.LOD1	-0.26473
	10512	H	24.673759	-9.458112	8.323825	H	2	YLD124_chi.LOD1	0.177954
	10513	H	24.614212	-7.995177	10.230017	H	2	YLD124_chi.LOD1	0.098859
	10514	H	21.926685	-10.685826	12.242365	H	2	YLD124_chi.LOD1	0.103807
	10515	H	21.971769	-12.177112	10.338593	H	2	YLD124_chi.LOD1	0.161189
	10516	C	23.821695	-6.418449	14.024080	C	2	YLD124_chi.LOD1	0.100982
	10517	C	24.613656	-5.297882	14.132810	C	2	YLD124_chi.LOD1	-0.303623
	10518	C	22.930528	-6.818989	15.181013	C	2	YLD124_chi.LOD1	0.096207
	10519	H	25.238629	-5.020747	13.285176	H	2	YLD124_chi.LOD1	0.124941
	10520	C	22.582646	-5.655714	16.138976	C	2	YLD124_chi.LOD1	0.409462
	10521	H	22.000020	-7.259520	14.803353	H	2	YLD124_chi.LOD1	-0.020765
	10522	C	23.885965	-4.907490	16.504547	C	2	YLD124_chi.LOD1	-0.014279
	10523	H	24.517179	-5.575948	17.110418	H	2	YLD124_chi.LOD1	-0.02177
	10524	C	24.686187	-4.473407	15.294961	C	2	YLD124_chi.LOD1	0.179445
	10525	C	25.536769	-3.420855	15.161615	C	2	YLD124_chi.LOD1	-0.27725
	10526	H	26.078330	-3.224296	14.236451	H	2	YLD124_chi.LOD1	0.132087
	10527	C	25.759957	-2.521950	16.229060	C	2	YLD124_chi.LOD1	0.141075
	10528	C	26.616851	-1.444184	16.135786	C	2	YLD124_chi.LOD1	-0.327608
	10529	H	25.245173	-2.699997	17.166047	H	2	YLD124_chi.LOD1	-0.027316
	10530	C	26.912943	-0.506022	17.148350	C	2	YLD124_chi.LOD1	0.260653
	10531	C	27.836405	0.528390	17.047095	C	2	YLD124_chi.LOD1	-0.287606
	10532	C	26.306966	-0.421291	18.551911	C	2	YLD124_chi.LOD1	-0.056548
	10533	C	27.888101	1.243365	18.294100	C	2	YLD124_chi.LOD1	0.509074
	10534	C	28.600344	0.783960	15.880180	C	2	YLD124_chi.LOD1	0.396907
	10535	O	27.037427	0.669833	19.178647	O	2	YLD124_chi.LOD1	-0.366332
	10536	C	26.427679	-1.660965	19.500405	C	2	YLD124_chi.LOD1	0.253806
	10537	C	24.762345	0.111035	18.604505	C	2	YLD124_chi.LOD1	0.598114
	10538	C	28.631590	2.327722	18.704885	C	2	YLD124_chi.LOD1	-0.43234
	10539	N	29.184144	0.912083	14.880535	N	2	YLD124_chi.LOD1	-0.430249
	10540	C	29.560879	2.985024	17.848090	C	2	YLD124_chi.LOD1	0.437474
	10541	C	28.485036	2.830698	20.031934	C	2	YLD124_chi.LOD1	0.49223
	10542	N	30.330874	3.550981	17.182239	N	2	YLD124_chi.LOD1	-0.451871
	10543	N	28.377034	3.250482	21.112745	N	2	YLD124_chi.LOD1	-0.482758
	10544	H	27.146028	-1.292767	15.196536	H	2	YLD124_chi.LOD1	0.157364
	10545	H	23.643660	-4.051955	17.143550	H	2	YLD124_chi.LOD1	0.040059
	10546	H	23.432882	-7.617753	15.748736	H	2	YLD124_chi.LOD1	-0.024244
	10547	C	24.153605	-11.545161	6.894561	C	2	YLD124_chi.LOD1	0.240322
	10548	C	22.661607	-13.052794	8.011009	C	2	YLD124_chi.LOD1	0.113854
	10549	C	21.298400	-13.016267	7.591744	C	2	YLD124_chi.LOD1	0.29958
	10550	C	23.484269	-10.801265	5.884106	C	2	YLD124_chi.LOD1	0.285774
	10551	O	22.172900	-10.671200	6.166570	O	2	YLD124_chi.LOD1	-0.61175
	10552	O	20.477000	-12.424200	8.480790	O	2	YLD124_chi.LOD1	-0.599726
	10553	C	18.282074	-11.767461	10.175128	C	2	YLD124_chi.LOD1	0.275329
	10554	C	20.759972	-8.581658	4.586245	C	2	YLD124_chi.LOD1	0.358728
	10555	C	20.064764	-8.492043	3.209629	C	2	YLD124_chi.LOD1	-0.337707
	10556	H	19.025433	-8.841304	3.248330	H	2	YLD124_chi.LOD1	0.059176
	10557	H	20.043648	-7.449790	2.860136	H	2	YLD124_chi.LOD1	0.075606
	10558	H	20.587112	-9.078622	2.443837	H	2	YLD124_chi.LOD1	0.056098
	10559	C	17.019198	-11.597043	9.302054	C	2	YLD124_chi.LOD1	-0.311529
	10560	H	16.398767	-10.775398	9.687699	H	2	YLD124_chi.LOD1	0.071087
	10561	H	17.264882	-11.354518	8.260581	H	2	YLD124_chi.LOD1	0.058721
	10562	H	16.394093	-12.498656	9.297608	H	2	YLD124_chi.LOD1	0.056179
	10563	C	22.195928	-8.026590	4.465451	C	2	YLD124_chi.LOD1	-0.279876
	10564	H	22.736372	-8.088469	5.417482	H	2	YLD124_chi.LOD1	0.048405
	10565	H	22.783151	-8.567362	3.713756	H	2	YLD124_chi.LOD1	0.047411
	10566	H	22.174160	-6.969282	4.164077	H	2	YLD124_chi.LOD1	0.054899
	10567	C	19.976453	-7.716281	5.597136	C	2	YLD124_chi.LOD1	-0.273001
	10568	H	19.926420	-6.674084	5.249742	H	2	YLD124_chi.LOD1	0.0526
	10569	H	18.943855	-8.062520	5.729423	H	2	YLD124_chi.LOD1	0.034813
	10570	H	20.455901	-7.703482	6.583397	H	2	YLD124_chi.LOD1	0.061699
	10571	C	17.856677	-12.080792	11.626118	C	2	YLD124_chi.LOD1	-0.202774
	10572	H	17.253826	-12.995186	11.689817	H	2	YLD124_chi.LOD1	0.027959
	10573	H	18.724810	-12.204164	12.283115	H	2	YLD124_chi.LOD1	0.030756
	10574	H	17.246449	-11.259939	12.029769	H	2	YLD124_chi.LOD1	0.045471
	10575	C	19.086897	-10.449581	10.163719	C	2	YLD124_chi.LOD1	-0.266625
	10576	H	19.383983	-10.159528	9.148376	H	2	YLD124_chi.LOD1	0.041283
	10577	H	18.479872	-9.628685	10.571959	H	2	YLD124_chi.LOD1	0.059445
	10578	H	19.995393	-10.526285	10.771308	H	2	YLD124_chi.LOD1	0.054675
	10579	C	18.377451	-14.393081	8.491294	C	2	YLD124_chi.LOD1	-0.410828
	10580	H	18.963537	-14.815188	7.667238	H	2	YLD124_chi.LOD1	0.093855
	10581	H	18.026886	-15.227870	9.110649	H	2	YLD124_chi.LOD1	0.090546
	10582	H	17.488154	-13.918765	8.058772	H	2	YLD124_chi.LOD1	0.070213
	10583	C	20.235715	-14.095710	10.807719	C	2	YLD124_chi.LOD1	-0.460074
	10584	H	21.227943	-13.666927	10.994406	H	2	YLD124_chi.LOD1	0.099819
	10585	H	19.679892	-14.068013	11.751546	H	2	YLD124_chi.LOD1	0.10243
	10586	H	20.386989	-15.148561	10.540644	H	2	YLD124_chi.LOD1	0.086844
	10587	C	21.112651	-11.547533	3.755944	C	2	YLD124_chi.LOD1	-0.477029
	10588	H	20.173769	-11.780491	3.241739	H	2	YLD124_chi.LOD1	0.107463
	10589	H	21.784891	-11.087801	3.022276	H	2	YLD124_chi.LOD1	0.106999
	10590	H	21.564587	-12.494432	4.073992	H	2	YLD124_chi.LOD1	0.090486
	10591	C	19.307088	-10.883917	6.053378	C	2	YLD124_chi.LOD1	-0.470103
	10592	H	18.653286	-11.486204	5.410745	H	2	YLD124_chi.LOD1	0.112461
	10593	H	19.494123	-11.456800	6.968925	H	2	YLD124_chi.LOD1	0.098066
	10594	H	18.742668	-9.988519	6.339988	H	2	YLD124_chi.LOD1	0.083138
	10595	Si	20.840300	-10.417500	5.164030	Si	2	YLD124_chi.LOD1	0.770043
	10596	Si	19.354500	-13.195700	9.476190	Si	2	YLD124_chi.LOD1	0.73989
	10597	H	23.947411	-9.806945	5.805170	H	2	YLD124_chi.LOD1	-0.017464
	10598	H	23.215244	-13.774339	7.403500	H	2	YLD124_chi.LOD1	0.058354
	10599	H	21.296960	-12.443057	6.653621	H	2	YLD124_chi.LOD1	-0.04034
	10600	H	20.925728	-14.026007	7.362931	H	2	YLD124_chi.LOD1	-0.007901
	10601	H	22.619735	-13.470411	9.022424	H	2	YLD124_chi.LOD1	0.028132
	10602	H	25.056223	-11.004863	7.197636	H	2	YLD124_chi.LOD1	-0.011538
	10603	H	24.493774	-12.485136	6.450728	H	2	YLD124_chi.LOD1	0.020652
	10604	H	23.598610	-11.294180	4.908660	H	2	YLD124_chi.LOD1	-0.064856
	10605	C	21.613929	-4.732881	15.417880	C	2	YLD124_chi.LOD1	-0.299384
	10606	H	20.677262	-5.252119	15.182134	H	2	YLD124_chi.LOD1	0.066854
	10607	H	21.372116	-3.900604	16.089670	H	2	YLD124_chi.LOD1	0.072315
	10608	H	22.005761	-4.309322	14.487886	H	2	YLD124_chi.LOD1	0.027971
	10609	C	21.983299	-6.266550	17.365709	C	2	YLD124_chi.LOD1	-0.427943
	10610	H	21.065231	-6.821237	17.136960	H	2	YLD124_chi.LOD1	0.089807
	10611	H	22.668657	-6.949557	17.882371	H	2	YLD124_chi.LOD1	0.091303
	10612	H	21.719953	-5.463212	18.064233	H	2	YLD124_chi.LOD1	0.089757
	10613	C	27.693979	-2.264899	19.481672	C	2	YLD124_chi.LOD1	-0.158763
	10614	C	25.431834	-2.203151	20.322857	C	2	YLD124_chi.LOD1	-0.147279
	10615	C	27.958871	-3.387856	20.260368	C	2	YLD124_chi.LOD1	-0.065518
	10616	H	28.479315	-1.852283	18.855557	H	2	YLD124_chi.LOD1	0.080042
	10617	C	25.698454	-3.335240	21.096049	C	2	YLD124_chi.LOD1	-0.090746
	10618	H	24.448517	-1.754711	20.378115	H	2	YLD124_chi.LOD1	0.09871
	10619	C	26.958299	-3.930271	21.069351	C	2	YLD124_chi.LOD1	-0.09866
	10620	H	28.946989	-3.838130	20.233916	H	2	YLD124_chi.LOD1	0.104949
	10621	H	27.162140	-4.807483	21.677024	H	2	YLD124_chi.LOD1	0.102095
	10622	H	24.914710	-3.743044	21.728229	H	2	YLD124_chi.LOD1	0.105434
	10623	F	24.458387	0.801387	19.714057	F	2	YLD124_chi.LOD1	-0.19867
	10624	F	23.879992	-0.895125	18.494397	F	2	YLD124_chi.LOD1	-0.154403
	10625	F	24.583702	0.931884	17.545247	F	2	YLD124_chi.LOD1	-0.186491
	10626	C	-16.475705	-6.031855	7.786666	C	3	YLD124_chi.LOD1	-0.150166
	10627	C	-17.829064	-6.178475	7.709332	C	3	YLD124_chi.LOD1	-0.190723
	10628	H	-18.367147	-5.677104	6.906330	H	3	YLD124_chi.LOD1	0.123134
	10629	H	-15.951606	-6.522498	8.605166	H	3	YLD124_chi.LOD1	0.111619
	10630	N	-12.980688	-2.974535	4.471231	N	3	YLD124_chi.LOD1	-0.506176
	10631	C	-13.831806	-3.741627	5.249004	C	3	YLD124_chi.LOD1	0.404469
	10632	C	-15.220183	-3.837437	4.961007	C	3	YLD124_chi.LOD1	-0.281203
	10633	C	-16.075806	-4.567018	5.765371	C	3	YLD124_chi.LOD1	-0.112562
	10634	C	-15.620698	-5.265600	6.904759	C	3	YLD124_chi.LOD1	0.131862
	10635	C	-14.238074	-5.189259	7.170778	C	3	YLD124_chi.LOD1	-0.140167
	10636	C	-13.366352	-4.461633	6.378236	C	3	YLD124_chi.LOD1	-0.26473
	10637	H	-15.635858	-3.336054	4.095952	H	3	YLD124_chi.LOD1	0.177954
	10638	H	-17.127480	-4.597849	5.496034	H	3	YLD124_chi.LOD1	0.098859
	10639	H	-13.837848	-5.720215	8.031887	H	3	YLD124_chi.LOD1	0.103807
	10640	H	-12.315968	-4.455028	6.641384	H	3	YLD124_chi.LOD1	0.161189
	10641	C	-18.653029	-6.919363	8.625304	C	3	YLD124_chi.LOD1	0.100982
	10642	C	-20.018954	-6.919504	8.455170	C	3	YLD124_chi.LOD1	-0.303623
	10643	C	-18.045267	-7.667013	9.793529	C	3	YLD124_chi.LOD1	0.096207
	10644	H	-20.435016	-6.385318	7.602282	H	3	YLD124_chi.LOD1	0.124941
	10645	C	-18.944038	-8.793141	10.355641	C	3	YLD124_chi.LOD1	0.409462
	10646	H	-17.078121	-8.094822	9.503443	H	3	YLD124_chi.LOD1	-0.020765
	10647	C	-20.369146	-8.230962	10.568111	C	3	YLD124_chi.LOD1	-0.014279
	10648	H	-20.335725	-7.484058	11.376422	H	3	YLD124_chi.LOD1	-0.02177
	10649	C	-20.939358	-7.563856	9.334534	C	3	YLD124_chi.LOD1	0.179445
	10650	C	-22.238208	-7.427329	8.955931	C	3	YLD124_chi.LOD1	-0.27725
	10651	H	-22.526664	-6.899525	8.047049	H	3	YLD124_chi.LOD1	0.132087
	10652	C	-23.286664	-7.970655	9.732344	C	3	YLD124_chi.LOD1	0.141075
	10653	C	-24.617005	-7.851471	9.385163	C	3	YLD124_chi.LOD1	-0.327608
	10654	H	-23.030807	-8.489562	10.648817	H	3	YLD124_chi.LOD1	-0.027316
	10655	C	-25.728175	-8.345742	10.102172	C	3	YLD124_chi.LOD1	0.260653
	10656	C	-27.062007	-8.147273	9.763728	C	3	YLD124_chi.LOD1	-0.287606
	10657	C	-25.717644	-9.182949	11.384102	C	3	YLD124_chi.LOD1	-0.056548
	10658	C	-27.901110	-8.766474	10.754374	C	3	YLD124_chi.LOD1	0.509074
	10659	C	-27.479330	-7.420481	8.619952	C	3	YLD124_chi.LOD1	0.396907
	10660	O	-27.127268	-9.327818	11.714097	O	3	YLD124_chi.LOD1	-0.366332
	10661	C	-25.004326	-8.607627	12.653430	C	3	YLD124_chi.LOD1	0.253806
	10662	C	-25.237784	-10.733055	11.188283	C	3	YLD124_chi.LOD1	0.598114
	10663	C	-29.270170	-8.850722	10.880581	C	3	YLD124_chi.LOD1	-0.43234
	10664	N	-27.724098	-6.804958	7.661960	N	3	YLD124_chi.LOD1	-0.430249
	10665	C	-30.161423	-8.277937	9.928054	C	3	YLD124_chi.LOD1	0.437474
	10666	C	-29.842410	-9.530590	11.996754	C	3	YLD124_chi.LOD1	0.49223
	10667	N	-30.925392	-7.824526	9.174842	N	3	YLD124_chi.LOD1	-0.451871
	10668	N	-30.323093	-10.080711	12.903587	N	3	YLD124_chi.LOD1	-0.482758
	10669	H	-24.859971	-7.305818	8.475010	H	3	YLD124_chi.LOD1	0.157364
	10670	H	-21.025086	-9.034165	10.919655	H	3	YLD124_chi.LOD1	0.040059
	10671	H	-17.826348	-6.944295	10.595056	H	3	YLD124_chi.LOD1	-0.024244
	10672	C	-13.430346	-2.305914	3.302834	C	3	YLD124_chi.LOD1	0.240322
	10673	C	-11.568931	-2.901747	4.690698	C	3	YLD124_chi.LOD1	0.113854
	10674	C	-10.664973	-3.600616	3.836789	C	3	YLD124_chi.LOD1	0.29958
	10675	C	-13.764416	-3.113412	2.180802	C	3	YLD124_chi.LOD1	0.285774
	10676	O	-13.845800	-4.413860	2.525000	O	3	YLD124_chi.LOD1	-0.61175
	10677	O	-10.657800	-3.133390	2.572980	O	3	YLD124_chi.LOD1	-0.599726
	10678	C	-8.679945	-2.427629	0.664858	C	3	YLD124_chi.LOD1	0.275329
	10679	C	-12.884268	-7.224137	2.694608	C	3	YLD124_chi.LOD1	0.358728
	10680	C	-13.059176	-8.585756	1.986219	C	3	YLD124_chi.LOD1	-0.337707
	10681	H	-12.527803	-8.623571	1.027103	H	3	YLD124_chi.LOD1	0.059176
	10682	H	-12.656947	-9.395578	2.611747	H	3	YLD124_chi.LOD1	0.075606
	10683	H	-14.113682	-8.819504	1.794546	H	3	YLD124_chi.LOD1	0.056098
	10684	C	-7.511073	-1.442818	0.441162	C	3	YLD124_chi.LOD1	-0.311529
	10685	H	-6.854992	-1.808032	-0.361916	H	3	YLD124_chi.LOD1	0.071087
	10686	H	-7.860039	-0.445804	0.144461	H	3	YLD124_chi.LOD1	0.058721
	10687	H	-6.889650	-1.327166	1.337900	H	3	YLD124_chi.LOD1	0.056179
	10688	C	-13.613045	-7.264012	4.055473	C	3	YLD124_chi.LOD1	-0.279876
	10689	H	-13.532258	-6.308526	4.587256	H	3	YLD124_chi.LOD1	0.048405
	10690	H	-14.679434	-7.493313	3.943456	H	3	YLD124_chi.LOD1	0.047411
	10691	H	-13.178041	-8.040966	4.700699	H	3	YLD124_chi.LOD1	0.054899
	10692	C	-11.379632	-6.982115	2.943958	C	3	YLD124_chi.LOD1	-0.273001
	10693	H	-10.956880	-7.796871	3.549610	H	3	YLD124_chi.LOD1	0.0526
	10694	H	-10.804111	-6.941261	2.010819	H	3	YLD124_chi.LOD1	0.034813
	10695	H	-11.200114	-6.048715	3.491024	H	3	YLD124_chi.LOD1	0.061699
	10696	C	-8.111073	-3.809671	1.053261	C	3	YLD124_chi.LOD1	-0.202774
	10697	H	-7.504952	-3.763264	1.966533	H	3	YLD124_chi.LOD1	0.027959
	10698	H	-8.908882	-4.542775	1.216294	H	3	YLD124_chi.LOD1	0.030756
	10699	H	-7.463336	-4.193754	0.251992	H	3	YLD124_chi.LOD1	0.045471
	10700	C	-9.481733	-2.567970	-0.647437	C	3	YLD124_chi.LOD1	-0.266625
	10701	H	-9.879214	-1.604629	-0.989921	H	3	YLD124_chi.LOD1	0.041283
	10702	H	-8.836722	-2.956935	-1.448485	H	3	YLD124_chi.LOD1	0.059445
	10703	H	-10.324656	-3.258547	-0.533436	H	3	YLD124_chi.LOD1	0.054675
	10704	C	-11.003189	-0.504739	1.453758	C	3	YLD124_chi.LOD1	-0.410828
	10705	H	-10.755867	-0.167582	0.440891	H	3	YLD124_chi.LOD1	0.093855
	10706	H	-12.026938	-0.898211	1.431660	H	3	YLD124_chi.LOD1	0.090546
	10707	H	-11.012361	0.377335	2.105495	H	3	YLD124_chi.LOD1	0.070213
	10708	C	-8.870201	-1.066099	3.464958	C	3	YLD124_chi.LOD1	-0.460074
	10709	H	-8.388610	-1.854612	4.056178	H	3	YLD124_chi.LOD1	0.099819
	10710	H	-8.085576	-0.381354	3.124364	H	3	YLD124_chi.LOD1	0.10243
	10711	H	-9.525360	-0.509985	4.146289	H	3	YLD124_chi.LOD1	0.086844
	10712	C	-15.326130	-6.241043	1.053062	C	3	YLD124_chi.LOD1	-0.477029
	10713	H	-15.801347	-6.967658	1.721174	H	3	YLD124_chi.LOD1	0.107463
	10714	H	-15.958195	-5.345629	1.036981	H	3	YLD124_chi.LOD1	0.106999
	10715	H	-15.324879	-6.665779	0.042312	H	3	YLD124_chi.LOD1	0.090486
	10716	C	-12.570249	-5.464695	0.170507	C	3	YLD124_chi.LOD1	-0.470103
	10717	H	-12.340807	-6.386226	-0.378421	H	3	YLD124_chi.LOD1	0.112461
	10718	H	-13.017648	-4.757613	-0.537498	H	3	YLD124_chi.LOD1	0.098066
	10719	H	-11.614926	-5.036785	0.497164	H	3	YLD124_chi.LOD1	0.083138
	10720	Si	-13.640900	-5.819390	1.615250	Si	3	YLD124_chi.LOD1	0.770043
	10721	Si	-9.817220	-1.763820	2.059240	Si	3	YLD124_chi.LOD1	0.73989
	10722	H	-14.719266	-2.784107	1.745804	H	3	YLD124_chi.LOD1	-0.017464
	10723	H	-11.267621	-1.854800	4.594150	H	3	YLD124_chi.LOD1	0.058354
	10724	H	-9.640392	-3.594435	4.235337	H	3	YLD124_chi.LOD1	-0.04034
	10725	H	-11.015197	-4.643756	3.841000	H	3	YLD124_chi.LOD1	-0.007901
	10726	H	-11.389873	-3.178189	5.735033	H	3	YLD124_chi.LOD1	0.028132
	10727	H	-14.318220	-1.726128	3.574906	H	3	YLD124_chi.LOD1	-0.011538
	10728	H	-12.668899	-1.578994	3.006120	H	3	YLD124_chi.LOD1	0.020652
	10729	H	-12.992665	-2.989676	1.408388	H	3	YLD124_chi.LOD1	-0.064856
	10730	C	-18.955948	-9.927600	9.344305	C	3	YLD124_chi.LOD1	-0.299384
	10731	H	-17.951624	-10.347586	9.212108	H	3	YLD124_chi.LOD1	0.066854
	10732	H	-19.600438	-10.724665	9.733895	H	3	YLD124_chi.LOD1	0.072315
	10733	H	-19.333621	-9.644424	8.356886	H	3	YLD124_chi.LOD1	0.027971
	10734	C	-18.356510	-9.204613	11.668219	C	3	YLD124_chi.LOD1	-0.427943
	10735	H	-17.336685	-9.591598	11.553973	H	3	YLD124_chi.LOD1	0.089807
	10736	H	-18.325747	-8.386844	12.398604	H	3	YLD124_chi.LOD1	0.091303
	10737	H	-18.970960	-10.008892	12.090389	H	3	YLD124_chi.LOD1	0.089757
	10738	C	-25.270402	-7.249390	12.883642	C	3	YLD124_chi.LOD1	-0.158763
	10739	C	-24.157492	-9.290057	13.536188	C	3	YLD124_chi.LOD1	-0.147279
	10740	C	-24.699580	-6.585432	13.965718	C	3	YLD124_chi.LOD1	-0.065518
	10741	H	-25.930956	-6.707823	12.213270	H	3	YLD124_chi.LOD1	0.080042
	10742	C	-23.579425	-8.618500	14.615721	C	3	YLD124_chi.LOD1	-0.090746
	10743	H	-23.942857	-10.342222	13.402235	H	3	YLD124_chi.LOD1	0.09871
	10744	C	-23.847113	-7.268657	14.835382	C	3	YLD124_chi.LOD1	-0.09866
	10745	H	-24.921319	-5.534570	14.128026	H	3	YLD124_chi.LOD1	0.104949
	10746	H	-23.399274	-6.752354	15.679888	H	3	YLD124_chi.LOD1	0.102095
	10747	H	-22.924787	-9.162731	15.290607	H	3	YLD124_chi.LOD1	0.105434
	10748	F	-26.175468	-11.377891	10.477636	F	3	YLD124_chi.LOD1	-0.19867
	10749	F	-25.027322	-11.431070	12.315895	F	3	YLD124_chi.LOD1	-0.154403
	10750	F	-24.090852	-10.752733	10.472817	F	3	YLD124_chi.LOD1	-0.186491
	10751	C	-22.995279	7.061366	25.762305	C	4	YLD124_chi.LOD1	-0.150166
	10752	C	-22.777868	5.981600	24.958629	C	4	YLD124_chi.LOD1	-0.190723
	10753	H	-21.904490	5.357504	25.141478	H	4	YLD124_chi.LOD1	0.123134
	10754	H	-23.861383	7.688427	25.557339	H	4	YLD124_chi.LOD1	0.111619
	10755	N	-19.856760	9.017796	30.107019	N	4	YLD124_chi.LOD1	-0.506176
	10756	C	-20.630482	8.515567	29.074119	C	4	YLD124_chi.LOD1	0.404469
	10757	C	-20.281716	7.315016	28.398286	C	4	YLD124_chi.LOD1	-0.281203
	10758	C	-21.030397	6.839879	27.337577	C	4	YLD124_chi.LOD1	-0.112562
	10759	C	-22.184994	7.508374	26.875662	C	4	YLD124_chi.LOD1	0.131862
	10760	C	-22.541838	8.684500	27.566772	C	4	YLD124_chi.LOD1	-0.140167
	10761	C	-21.803072	9.176981	28.629388	C	4	YLD124_chi.LOD1	-0.26473
	10762	H	-19.414566	6.744824	28.707190	H	4	YLD124_chi.LOD1	0.177954
	10763	H	-20.709873	5.919504	26.858320	H	4	YLD124_chi.LOD1	0.098859
	10764	H	-23.430475	9.229058	27.254706	H	4	YLD124_chi.LOD1	0.103807
	10765	H	-22.142808	10.082913	29.115663	H	4	YLD124_chi.LOD1	0.161189
	10766	C	-23.585206	5.586401	23.836638	C	4	YLD124_chi.LOD1	0.100982
	10767	C	-23.198995	4.507141	23.074580	C	4	YLD124_chi.LOD1	-0.303623
	10768	C	-24.830719	6.360525	23.459101	C	4	YLD124_chi.LOD1	0.096207
	10769	H	-22.306717	3.957063	23.369763	H	4	YLD124_chi.LOD1	0.124941
	10770	C	-25.836878	5.555047	22.604249	C	4	YLD124_chi.LOD1	0.409462
	10771	H	-25.338297	6.719202	24.362571	H	4	YLD124_chi.LOD1	-0.020765
	10772	C	-25.071362	4.879071	21.442714	C	4	YLD124_chi.LOD1	-0.014279
	10773	H	-24.704310	5.661749	20.760777	H	4	YLD124_chi.LOD1	-0.02177
	10774	C	-23.883198	4.062305	21.904280	C	4	YLD124_chi.LOD1	0.179445
	10775	C	-23.313321	2.972795	21.323418	C	4	YLD124_chi.LOD1	-0.27725
	10776	H	-22.436478	2.481063	21.744367	H	4	YLD124_chi.LOD1	0.132087
	10777	C	-23.838496	2.420645	20.133207	C	4	YLD124_chi.LOD1	0.141075
	10778	C	-23.288388	1.318646	19.510690	C	4	YLD124_chi.LOD1	-0.327608
	10779	H	-24.702394	2.896775	19.684178	H	4	YLD124_chi.LOD1	-0.027316
	10780	C	-23.732759	0.708788	18.317497	C	4	YLD124_chi.LOD1	0.260653
	10781	C	-23.113721	-0.357889	17.675598	C	4	YLD124_chi.LOD1	-0.287606
	10782	C	-24.958967	1.077949	17.478148	C	4	YLD124_chi.LOD1	-0.056548
	10783	C	-23.835442	-0.671997	16.471712	C	4	YLD124_chi.LOD1	0.509074
	10784	C	-21.941099	-0.989825	18.161624	C	4	YLD124_chi.LOD1	0.396907
	10785	O	-24.876207	0.183946	16.333232	O	4	YLD124_chi.LOD1	-0.366332
	10786	C	-25.076746	2.534811	16.917201	C	4	YLD124_chi.LOD1	0.253806
	10787	C	-26.394979	0.671052	18.144353	C	4	YLD124_chi.LOD1	0.598114
	10788	C	-23.632947	-1.624391	15.497396	C	4	YLD124_chi.LOD1	-0.43234
	10789	N	-20.977685	-1.440743	18.636004	N	4	YLD124_chi.LOD1	-0.430249
	10790	C	-22.556695	-2.556250	15.552537	C	4	YLD124_chi.LOD1	0.437474
	10791	C	-24.518600	-1.701788	14.381532	C	4	YLD124_chi.LOD1	0.49223
	10792	N	-21.691177	-3.335616	15.557531	N	4	YLD124_chi.LOD1	-0.451871
	10793	N	-25.232396	-1.775108	13.464388	N	4	YLD124_chi.LOD1	-0.482758
	10794	H	-22.405811	0.866444	19.959821	H	4	YLD124_chi.LOD1	0.157364
	10795	H	-25.767335	4.266478	20.860197	H	4	YLD124_chi.LOD1	0.040059
	10796	H	-24.526912	7.263141	22.906219	H	4	YLD124_chi.LOD1	-0.024244
	10797	C	-18.719015	8.335170	30.612701	C	4	YLD124_chi.LOD1	0.240322
	10798	C	-20.203124	10.187785	30.854023	C	4	YLD124_chi.LOD1	0.113854
	10799	C	-20.679459	10.095566	32.196486	C	4	YLD124_chi.LOD1	0.29958
	10800	C	-18.870167	7.230294	31.503908	C	4	YLD124_chi.LOD1	0.285774
	10801	O	-19.162000	6.061790	30.899200	O	4	YLD124_chi.LOD1	-0.61175
	10802	O	-19.715400	9.837540	33.101800	O	4	YLD124_chi.LOD1	-0.599726
	10803	C	-19.262812	8.870547	35.753405	C	4	YLD124_chi.LOD1	0.275329
	10804	C	-19.762091	3.231704	30.234907	C	4	YLD124_chi.LOD1	0.358728
	10805	C	-19.925213	1.895311	30.992442	C	4	YLD124_chi.LOD1	-0.337707
	10806	H	-20.490347	2.015582	31.925099	H	4	YLD124_chi.LOD1	0.059176
	10807	H	-20.472426	1.170145	30.373106	H	4	YLD124_chi.LOD1	0.075606
	10808	H	-18.958424	1.441327	31.242596	H	4	YLD124_chi.LOD1	0.056098
	10809	C	-18.740487	7.723404	34.860437	C	4	YLD124_chi.LOD1	-0.311529
	10810	H	-18.563208	6.822178	35.464690	H	4	YLD124_chi.LOD1	0.071087
	10811	H	-19.456810	7.449969	34.075606	H	4	YLD124_chi.LOD1	0.058721
	10812	H	-17.790698	7.977307	34.373492	H	4	YLD124_chi.LOD1	0.056179
	10813	C	-19.005667	2.975526	28.913221	C	4	YLD124_chi.LOD1	-0.279876
	10814	H	-18.848929	3.902581	28.349063	H	4	YLD124_chi.LOD1	0.048405
	10815	H	-18.023055	2.519985	29.084297	H	4	YLD124_chi.LOD1	0.047411
	10816	H	-19.576641	2.288852	28.271606	H	4	YLD124_chi.LOD1	0.054899
	10817	C	-21.163017	3.791319	29.904880	C	4	YLD124_chi.LOD1	-0.273001
	10818	H	-21.732131	3.066714	29.304533	H	4	YLD124_chi.LOD1	0.0526
	10819	H	-21.752490	3.996970	30.807028	H	4	YLD124_chi.LOD1	0.034813
	10820	H	-21.106739	4.718152	29.321308	H	4	YLD124_chi.LOD1	0.061699
	10821	C	-18.215392	9.180347	36.844939	C	4	YLD124_chi.LOD1	-0.202774
	10822	H	-17.249223	9.474474	36.416442	H	4	YLD124_chi.LOD1	0.027959
	10823	H	-18.549196	9.987338	37.506650	H	4	YLD124_chi.LOD1	0.030756
	10824	H	-18.038418	8.290641	37.466402	H	4	YLD124_chi.LOD1	0.045471
	10825	C	-20.576088	8.425220	36.432868	C	4	YLD124_chi.LOD1	-0.266625
	10826	H	-21.346364	8.156561	35.699514	H	4	YLD124_chi.LOD1	0.041283
	10827	H	-20.399774	7.538658	37.058912	H	4	YLD124_chi.LOD1	0.059445
	10828	H	-20.984239	9.212070	37.076833	H	4	YLD124_chi.LOD1	0.054675
	10829	C	-18.188354	11.617983	34.769358	C	4	YLD124_chi.LOD1	-0.410828
	10830	H	-17.334529	11.204806	35.318000	H	4	YLD124_chi.LOD1	0.093855
	10831	H	-17.835571	11.898820	33.769336	H	4	YLD124_chi.LOD1	0.090546
	10832	H	-18.492410	12.543089	35.273967	H	4	YLD124_chi.LOD1	0.070213
	10833	C	-21.130842	11.277626	35.147940	C	4	YLD124_chi.LOD1	-0.460074
	10834	H	-21.931146	10.560775	35.368988	H	4	YLD124_chi.LOD1	0.099819
	10835	H	-20.994925	11.906371	36.034914	H	4	YLD124_chi.LOD1	0.10243
	10836	H	-21.491881	11.920220	34.335886	H	4	YLD124_chi.LOD1	0.086844
	10837	C	-16.964183	4.371103	30.967636	C	4	YLD124_chi.LOD1	-0.477029
	10838	H	-16.651485	5.117783	30.229488	H	4	YLD124_chi.LOD1	0.107463
	10839	H	-16.391145	4.553614	31.884067	H	4	YLD124_chi.LOD1	0.106999
	10840	H	-16.678063	3.383428	30.587305	H	4	YLD124_chi.LOD1	0.090486
	10841	C	-19.070963	4.201149	33.090855	C	4	YLD124_chi.LOD1	-0.470103
	10842	H	-18.731416	3.203790	33.396087	H	4	YLD124_chi.LOD1	0.112461
	10843	H	-18.574791	4.934401	33.737042	H	4	YLD124_chi.LOD1	0.098066
	10844	H	-20.145440	4.255646	33.302941	H	4	YLD124_chi.LOD1	0.083138
	10845	Si	-18.755200	4.476290	31.306400	Si	4	YLD124_chi.LOD1	0.770043
	10846	Si	-19.577500	10.426200	34.676800	Si	4	YLD124_chi.LOD1	0.73989
	10847	H	-17.976698	7.109383	32.133587	H	4	YLD124_chi.LOD1	-0.017464
	10848	H	-19.305425	10.806106	30.943590	H	4	YLD124_chi.LOD1	0.058354
	10849	H	-21.228052	11.000754	32.493683	H	4	YLD124_chi.LOD1	-0.04034
	10850	H	-21.399246	9.263455	32.178804	H	4	YLD124_chi.LOD1	-0.007901
	10851	H	-20.911415	10.760294	30.246014	H	4	YLD124_chi.LOD1	0.028132
	10852	H	-18.188795	7.907985	29.755452	H	4	YLD124_chi.LOD1	-0.011538
	10853	H	-18.043245	9.073283	31.054038	H	4	YLD124_chi.LOD1	0.020652
	10854	H	-19.700668	7.514602	32.164946	H	4	YLD124_chi.LOD1	-0.064856
	10855	C	-26.483047	4.514125	23.503586	C	4	YLD124_chi.LOD1	-0.299384
	10856	H	-27.050379	4.990322	24.312228	H	4	YLD124_chi.LOD1	0.066854
	10857	H	-27.190184	3.933415	22.899275	H	4	YLD124_chi.LOD1	0.072315
	10858	H	-25.776238	3.812742	23.957792	H	4	YLD124_chi.LOD1	0.027971
	10859	C	-26.828220	6.534452	22.060759	C	4	YLD124_chi.LOD1	-0.427943
	10860	H	-27.376136	7.045505	22.861674	H	4	YLD124_chi.LOD1	0.089807
	10861	H	-26.368184	7.301542	21.425863	H	4	YLD124_chi.LOD1	0.091303
	10862	H	-27.560930	5.990446	21.452621	H	4	YLD124_chi.LOD1	0.089757
	10863	C	-23.876562	3.035767	16.390698	C	4	YLD124_chi.LOD1	-0.158763
	10864	C	-26.215459	3.350368	16.899907	C	4	YLD124_chi.LOD1	-0.147279
	10865	C	-23.812051	4.323071	15.865101	C	4	YLD124_chi.LOD1	-0.065518
	10866	H	-22.986696	2.413545	16.389350	H	4	YLD124_chi.LOD1	0.080042
	10867	C	-26.144897	4.644650	16.379912	C	4	YLD124_chi.LOD1	-0.090746
	10868	H	-27.163503	2.993025	17.280146	H	4	YLD124_chi.LOD1	0.09871
	10869	C	-24.948007	5.135106	15.861364	C	4	YLD124_chi.LOD1	-0.09866
	10870	H	-22.873905	4.690455	15.459222	H	4	YLD124_chi.LOD1	0.104949
	10871	H	-24.899908	6.140686	15.452936	H	4	YLD124_chi.LOD1	0.102095
	10872	H	-27.037414	5.263999	16.374391	H	4	YLD124_chi.LOD1	0.105434
	10873	F	-26.221004	-0.524287	18.728287	F	4	YLD124_chi.LOD1	-0.19867
	10874	F	-27.419733	0.560413	17.283733	F	4	YLD124_chi.LOD1	-0.154403
	10875	F	-26.757954	1.550966	19.104422	F	4	YLD124_chi.LOD1	-0.186491
	10876	C	-28.502126	8.723637	24.501278	C	1	YLD124.LOD1	-0.158041
	10877	C	-28.815159	7.516323	25.052163	C	1	YLD124.LOD1	-0.174247
	10878	H	-28.179989	7.120248	25.842974	H	1	YLD124.LOD1	0.11023
	10879	H	-29.135189	9.104382	23.701511	H	1	YLD124.LOD1	0.116594
	10880	N	-24.194433	12.249007	25.759287	N	1	YLD124.LOD1	-0.477879
	10881	C	-25.245700	11.394521	25.472514	C	1	YLD124.LOD1	0.383639
	10882	C	-25.418582	10.167679	26.168826	C	1	YLD124.LOD1	-0.278193
	10883	C	-26.452316	9.302597	25.861949	C	1	YLD124.LOD1	-0.102205
	10884	C	-27.396279	9.589804	24.852097	C	1	YLD124.LOD1	0.126725
	10885	C	-27.226423	10.812736	24.170977	C	1	YLD124.LOD1	-0.148338
	10886	C	-26.197241	11.691660	24.464290	C	1	YLD124.LOD1	-0.248652
	10887	H	-24.736495	9.886911	26.961549	H	1	YLD124.LOD1	0.176041
	10888	H	-26.529323	8.378828	26.427771	H	1	YLD124.LOD1	0.098595
	10889	H	-27.932020	11.081241	23.387623	H	1	YLD124.LOD1	0.105176
	10890	H	-26.137321	12.617693	23.906180	H	1	YLD124.LOD1	0.157607
	10891	C	-29.919300	6.673946	24.681038	C	1	YLD124.LOD1	0.13089
	10892	C	-30.080179	5.459526	25.308936	C	1	YLD124.LOD1	-0.298955
	10893	C	-30.893463	7.089897	23.598731	C	1	YLD124.LOD1	0.000678
	10894	H	-29.375235	5.183810	26.091834	H	1	YLD124.LOD1	0.128536
	10895	C	-32.270315	6.391010	23.690425	C	1	YLD124.LOD1	0.312314
	10896	H	-31.043378	8.175791	23.623813	H	1	YLD124.LOD1	0.009572
	10897	C	-32.044322	4.870371	23.860049	C	1	YLD124.LOD1	0.132423
	10898	H	-31.599660	4.475784	22.933225	H	1	YLD124.LOD1	-0.011706
	10899	C	-31.117925	4.528055	25.007338	C	1	YLD124.LOD1	0.094029
	10900	C	-31.095857	3.415626	25.790713	C	1	YLD124.LOD1	-0.194272
	10901	H	-30.352277	3.271934	26.574488	H	1	YLD124.LOD1	0.118653
	10902	C	-32.050732	2.386877	25.626985	C	1	YLD124.LOD1	0.029031
	10903	C	-32.085133	1.259055	26.421523	C	1	YLD124.LOD1	-0.298661
	10904	H	-32.794612	2.498084	24.846771	H	1	YLD124.LOD1	0.063317
	10905	C	-33.023484	0.206350	26.355762	C	1	YLD124.LOD1	0.24754
	10906	C	-33.090254	-0.874749	27.227553	C	1	YLD124.LOD1	-0.281071
	10907	C	-34.163103	0.031217	25.348055	C	1	YLD124.LOD1	-0.098074
	10908	C	-34.213665	-1.700757	26.874798	C	1	YLD124.LOD1	0.526995
	10909	C	-32.184439	-1.072216	28.300392	C	1	YLD124.LOD1	0.389724
	10910	O	-34.865899	-1.149779	25.822338	O	1	YLD124.LOD1	-0.351072
	10911	C	-33.693481	-0.410926	23.853351	C	1	YLD124.LOD1	0.617997
	10912	C	-35.221917	1.173337	25.207067	C	1	YLD124.LOD1	0.253109
	10913	C	-34.707940	-2.866146	27.417590	C	1	YLD124.LOD1	-0.451385
	10914	N	-31.397408	-1.146507	29.155729	N	1	YLD124.LOD1	-0.428829
	10915	F	-32.839865	-1.435713	23.998019	F	1	YLD124.LOD1	-0.200469
	10916	F	-34.675314	-0.807230	23.028010	F	1	YLD124.LOD1	-0.158364
	10917	F	-33.027997	0.597570	23.247425	F	1	YLD124.LOD1	-0.193377
	10918	C	-34.831328	2.359504	25.846216	C	1	YLD124.LOD1	-0.158716
	10919	C	-36.485673	1.112131	24.606348	C	1	YLD124.LOD1	-0.162688
	10920	C	-34.096925	-3.507800	28.533257	C	1	YLD124.LOD1	0.447489
	10921	C	-35.872995	-3.473483	26.861395	C	1	YLD124.LOD1	0.491336
	10922	H	-33.857727	2.419547	26.323406	H	1	YLD124.LOD1	0.085247
	10923	C	-35.679108	3.462886	25.878987	C	1	YLD124.LOD1	-0.074329
	10924	C	-37.330294	2.224654	24.632888	C	1	YLD124.LOD1	-0.055824
	10925	H	-36.829626	0.208483	24.120218	H	1	YLD124.LOD1	0.099228
	10926	N	-33.630022	-4.064572	29.443505	N	1	YLD124.LOD1	-0.454587
	10927	N	-36.824376	-3.978716	26.419081	N	1	YLD124.LOD1	-0.481156
	10928	H	-35.359162	4.370830	26.382016	H	1	YLD124.LOD1	0.111202
	10929	C	-36.932851	3.400375	25.266874	C	1	YLD124.LOD1	-0.106678
	10930	H	-38.307934	2.160363	24.163433	H	1	YLD124.LOD1	0.095951
	10931	H	-37.595911	4.260702	25.289946	H	1	YLD124.LOD1	0.103827
	10932	H	-31.338248	1.164814	27.207933	H	1	YLD124.LOD1	0.159396
	10933	H	-33.012964	4.372384	23.971836	H	1	YLD124.LOD1	-0.052081
	10934	H	-30.441898	6.870569	22.618699	H	1	YLD124.LOD1	-0.003289
	10935	C	-23.266188	12.047147	26.814611	C	1	YLD124.LOD1	0.198954
	10936	C	-24.040613	13.509799	25.107115	C	1	YLD124.LOD1	0.115128
	10937	C	-24.823234	14.633639	25.514526	C	1	YLD124.LOD1	0.306486
	10938	C	-23.304319	12.913702	27.944679	C	1	YLD124.LOD1	0.28632
	10939	O	-24.560800	13.315900	28.217400	O	1	YLD124.LOD1	-0.606883
	10940	O	-26.119100	14.548500	25.156300	O	1	YLD124.LOD1	-0.600198
	10941	C	-28.432663	16.161728	25.416737	C	1	YLD124.LOD1	0.267162
	10942	C	-25.052552	11.890480	30.783096	C	1	YLD124.LOD1	0.369124
	10943	C	-25.774884	12.036847	32.141068	C	1	YLD124.LOD1	-0.324271
	10944	H	-26.863740	12.106242	32.025406	H	1	YLD124.LOD1	0.053925
	10945	H	-25.571755	11.162448	32.775947	H	1	YLD124.LOD1	0.070181
	10946	H	-25.439603	12.922516	32.694242	H	1	YLD124.LOD1	0.052098
	10947	C	-29.336917	17.196827	24.711518	C	1	YLD124.LOD1	-0.316887
	10948	H	-30.160930	17.495151	25.375359	H	1	YLD124.LOD1	0.07213
	10949	H	-28.790496	18.109811	24.443857	H	1	YLD124.LOD1	0.059956
	10950	H	-29.788600	16.795806	23.795645	H	1	YLD124.LOD1	0.057948
	10951	C	-23.533735	11.763668	31.030454	C	1	YLD124.LOD1	-0.260833
	10952	H	-22.975968	11.667033	30.091505	H	1	YLD124.LOD1	0.041714
	10953	H	-23.132846	12.631950	31.566748	H	1	YLD124.LOD1	0.041636
	10954	H	-23.316320	10.874487	31.639847	H	1	YLD124.LOD1	0.048242
	10955	C	-25.554137	10.604827	30.090401	C	1	YLD124.LOD1	-0.256632
	10956	H	-25.372482	9.729621	30.731031	H	1	YLD124.LOD1	0.046696
	10957	H	-26.631121	10.636695	29.884429	H	1	YLD124.LOD1	0.030906
	10958	H	-25.035596	10.421564	29.141550	H	1	YLD124.LOD1	0.051975
	10959	C	-29.276291	14.922507	25.787360	C	1	YLD124.LOD1	-0.203727
	10960	H	-29.734365	14.460136	24.904285	H	1	YLD124.LOD1	0.027457
	10961	H	-28.673325	14.159099	26.291427	H	1	YLD124.LOD1	0.031775
	10962	H	-30.092835	15.206634	26.466663	H	1	YLD124.LOD1	0.046776
	10963	C	-27.863046	16.785402	26.709555	C	1	YLD124.LOD1	-0.249027
	10964	H	-27.282371	17.693351	26.504750	H	1	YLD124.LOD1	0.037596
	10965	H	-28.680241	17.068228	27.388684	H	1	YLD124.LOD1	0.055765
	10966	H	-27.212609	16.084061	27.243846	H	1	YLD124.LOD1	0.04836
	10967	C	-25.933836	17.077472	23.793019	C	1	YLD124.LOD1	-0.409962
	10968	H	-25.542163	17.586940	24.680598	H	1	YLD124.LOD1	0.090944
	10969	H	-25.076771	16.758543	23.187253	H	1	YLD124.LOD1	0.090896
	10970	H	-26.487585	17.816882	23.201683	H	1	YLD124.LOD1	0.069902
	10971	C	-27.605902	14.855685	22.709036	C	1	YLD124.LOD1	-0.458602
	10972	H	-26.773685	14.523732	22.076237	H	1	YLD124.LOD1	0.097974
	10973	H	-28.227037	13.979893	22.927811	H	1	YLD124.LOD1	0.103309
	10974	H	-28.207961	15.550177	22.110491	H	1	YLD124.LOD1	0.085827
	10975	C	-24.688166	14.955619	30.445341	C	1	YLD124.LOD1	-0.493974
	10976	H	-23.597645	14.899233	30.533596	H	1	YLD124.LOD1	0.11158
	10977	H	-24.924099	15.829080	29.826602	H	1	YLD124.LOD1	0.113577
	10978	H	-25.097396	15.136051	31.446127	H	1	YLD124.LOD1	0.09477
	10979	C	-27.171602	13.651280	29.382719	C	1	YLD124.LOD1	-0.483575
	10980	H	-27.354869	14.523697	28.743701	H	1	YLD124.LOD1	0.116965
	10981	H	-27.629073	12.781638	28.897500	H	1	YLD124.LOD1	0.100121
	10982	H	-27.709424	13.819888	30.323346	H	1	YLD124.LOD1	0.088084
	10983	Si	-25.375300	13.443900	29.688900	Si	1	YLD124.LOD1	0.763339
	10984	Si	-27.002600	15.658200	24.242400	Si	1	YLD124.LOD1	0.748472
	10985	H	-22.870147	12.430177	28.832102	H	1	YLD124.LOD1	-0.009815
	10986	H	-22.979565	13.774451	25.124854	H	1	YLD124.LOD1	0.057511
	10987	H	-24.742956	14.657565	26.610833	H	1	YLD124.LOD1	-0.045737
	10988	H	-24.398546	15.573724	25.131507	H	1	YLD124.LOD1	-0.011652
	10989	H	-24.305440	13.369718	24.053846	H	1	YLD124.LOD1	0.023801
	10990	H	-23.436036	11.035542	27.198226	H	1	YLD124.LOD1	-0.001966
	10991	H	-22.262933	12.045628	26.379730	H	1	YLD124.LOD1	0.031172
	10992	H	-22.680409	13.786902	27.708863	H	1	YLD124.LOD1	-0.066029
	10993	C	-33.007476	6.964513	24.895658	C	1	YLD124.LOD1	-0.185058
	10994	H	-33.196239	8.037023	24.766520	H	1	YLD124.LOD1	0.04722
	10995	H	-33.979248	6.462289	24.972534	H	1	YLD124.LOD1	0.027573
	10996	H	-32.484051	6.827998	25.847060	H	1	YLD124.LOD1	0.00699
	10997	C	-32.985449	6.661061	22.407310	C	1	YLD124.LOD1	-0.347891
	10998	H	-33.144721	7.734397	22.247448	H	1	YLD124.LOD1	0.075067
	10999	H	-32.453854	6.266458	21.532756	H	1	YLD124.LOD1	0.071859
	11000	H	-33.970978	6.181507	22.445895	H	1	YLD124.LOD1	0.077505
	11001	C	-20.038539	-11.487696	16.356630	C	2	YLD124.LOD1	-0.158041
	11002	C	-19.631053	-10.271765	16.819812	C	2	YLD124.LOD1	-0.174247
	11003	H	-18.723436	-9.831655	16.409649	H	2	YLD124.LOD1	0.11023
	11004	H	-20.939394	-11.925704	16.783210	H	2	YLD124.LOD1	0.116594
	11005	N	-17.655016	-14.809157	12.374952	N	2	YLD124.LOD1	-0.477879
	11006	C	-18.234751	-13.988805	13.328092	C	2	YLD124.LOD1	0.383639
	11007	C	-17.664604	-12.734372	13.676247	C	2	YLD124.LOD1	-0.278193
	11008	C	-18.229018	-11.929408	14.648160	C	2	YLD124.LOD1	-0.102205
	11009	C	-19.402563	-12.299492	15.340391	C	2	YLD124.LOD1	0.126725
	11010	C	-19.970059	-13.540273	14.984373	C	2	YLD124.LOD1	-0.148338
	11011	C	-19.418974	-14.359971	14.013726	C	2	YLD124.LOD1	-0.248652
	11012	H	-16.768813	-12.383070	13.179631	H	2	YLD124.LOD1	0.176041
	11013	H	-17.744508	-10.983483	14.871565	H	2	YLD124.LOD1	0.098595
	11014	H	-20.878333	-13.866943	15.486299	H	2	YLD124.LOD1	0.105176
	11015	H	-19.917451	-15.293934	13.786025	H	2	YLD124.LOD1	0.157607
	11016	C	-20.281054	-9.487934	17.834488	C	2	YLD124.LOD1	0.13089
	11017	C	-19.721879	-8.291162	18.221806	C	2	YLD124.LOD1	-0.298955
	11018	C	-21.555864	-9.965897	18.497668	C	2	YLD124.LOD1	0.000678
	11019	H	-18.810980	-7.960261	17.725155	H	2	YLD124.LOD1	0.128536
	11020	C	-22.400156	-8.832418	19.126132	C	2	YLD124.LOD1	0.312314
	11021	H	-22.174531	-10.511685	17.775424	H	2	YLD124.LOD1	0.009572
	11022	C	-21.473222	-7.942397	19.986854	C	2	YLD124.LOD1	0.132423
	11023	H	-21.122467	-8.530896	20.848866	H	2	YLD124.LOD1	-0.011706
	11024	C	-20.258246	-7.442020	19.235109	C	2	YLD124.LOD1	0.094029
	11025	C	-19.552809	-6.291820	19.411563	C	2	YLD124.LOD1	-0.194272
	11026	H	-18.668722	-6.056169	18.819346	H	2	YLD124.LOD1	0.118653
	11027	C	-19.942029	-5.335987	20.376864	C	2	YLD124.LOD1	0.029031
	11028	C	-19.275532	-4.142294	20.564835	C	2	YLD124.LOD1	-0.298661
	11029	H	-20.810738	-5.550189	20.988356	H	2	YLD124.LOD1	0.063317
	11030	C	-19.617234	-3.116577	21.472667	C	2	YLD124.LOD1	0.24754
	11031	C	-18.982247	-1.884183	21.578734	C	2	YLD124.LOD1	-0.281071
	11032	C	-20.747602	-3.120538	22.505687	C	2	YLD124.LOD1	-0.098074
	11033	C	-19.652096	-1.088627	22.572300	C	2	YLD124.LOD1	0.526995
	11034	C	-17.868072	-1.507044	20.786992	C	2	YLD124.LOD1	0.389724
	11035	O	-20.704830	-1.781594	23.070503	O	2	YLD124.LOD1	-0.351072
	11036	C	-20.483422	-4.063584	23.806219	C	2	YLD124.LOD1	0.617997
	11037	C	-22.211482	-3.368352	22.014867	C	2	YLD124.LOD1	0.253109
	11038	C	-19.421463	0.185105	23.042914	C	2	YLD124.LOD1	-0.451385
	11039	N	-16.961936	-1.286291	20.089335	N	2	YLD124.LOD1	-0.428829
	11040	F	-19.248665	-3.782860	24.249330	F	2	YLD124.LOD1	-0.200469
	11041	F	-21.335522	-3.895647	24.829919	F	2	YLD124.LOD1	-0.158364
	11042	F	-20.509647	-5.369514	23.458459	F	2	YLD124.LOD1	-0.193377
	11043	C	-22.270253	-3.871449	20.706623	C	2	YLD124.LOD1	-0.158716
	11044	C	-23.407610	-3.078720	22.683506	C	2	YLD124.LOD1	-0.162688
	11045	C	-18.348369	0.992186	22.566615	C	2	YLD124.LOD1	0.447489
	11046	C	-20.273370	0.740365	24.043667	C	2	YLD124.LOD1	0.491336
	11047	H	-21.351229	-4.093259	20.172384	H	2	YLD124.LOD1	0.085247
	11048	C	-23.494880	-4.088215	20.081678	C	2	YLD124.LOD1	-0.074329
	11049	C	-24.635243	-3.306438	22.056721	C	2	YLD124.LOD1	-0.055824
	11050	H	-23.402298	-2.671828	23.686311	H	2	YLD124.LOD1	0.099228
	11051	N	-17.484864	1.685376	22.205516	N	2	YLD124.LOD1	-0.454587
	11052	N	-20.962086	1.206954	24.858524	N	2	YLD124.LOD1	-0.481156
	11053	H	-23.518630	-4.475106	19.067027	H	2	YLD124.LOD1	0.111202
	11054	C	-24.684587	-3.809944	20.758158	C	2	YLD124.LOD1	-0.106678
	11055	H	-25.553905	-3.075221	22.588604	H	2	YLD124.LOD1	0.095951
	11056	H	-25.641783	-3.979505	20.273010	H	2	YLD124.LOD1	0.103827
	11057	H	-18.410565	-3.935418	19.936987	H	2	YLD124.LOD1	0.159396
	11058	H	-22.053521	-7.110464	20.399038	H	2	YLD124.LOD1	-0.052081
	11059	H	-21.291293	-10.694838	19.279413	H	2	YLD124.LOD1	-0.003289
	11060	C	-16.527331	-14.416222	11.609288	C	2	YLD124.LOD1	0.198954
	11061	C	-18.250263	-16.044956	11.979067	C	2	YLD124.LOD1	0.115128
	11062	C	-19.340139	-15.991643	11.063639	C	2	YLD124.LOD1	0.306486
	11063	C	-16.716448	-13.771286	10.350394	C	2	YLD124.LOD1	0.28632
	11064	O	-17.338400	-14.551500	9.445400	O	2	YLD124.LOD1	-0.606883
	11065	O	-19.823300	-14.738000	10.963400	O	2	YLD124.LOD1	-0.600198
	11066	C	-21.931376	-14.158945	9.162400	C	2	YLD124.LOD1	0.267162
	11067	C	-16.881292	-13.164214	6.852475	C	2	YLD124.LOD1	0.369124
	11068	C	-16.527965	-13.430369	5.372071	C	2	YLD124.LOD1	-0.324271
	11069	H	-17.296221	-14.026412	4.863822	H	2	YLD124.LOD1	0.053925
	11070	H	-16.440757	-12.480455	4.825294	H	2	YLD124.LOD1	0.070181
	11071	H	-15.570816	-13.954655	5.263373	H	2	YLD124.LOD1	0.052098
	11072	C	-23.407614	-13.719221	9.044910	C	2	YLD124.LOD1	-0.316887
	11073	H	-23.705378	-13.669223	7.987783	H	2	YLD124.LOD1	0.07213
	11074	H	-24.089583	-14.421659	9.540141	H	2	YLD124.LOD1	0.059956
	11075	H	-23.578869	-12.725161	9.476390	H	2	YLD124.LOD1	0.057948
	11076	C	-15.774860	-12.293844	7.486777	C	2	YLD124.LOD1	-0.260833
	11077	H	-15.977643	-12.086001	8.544014	H	2	YLD124.LOD1	0.041714
	11078	H	-14.791190	-12.774369	7.425759	H	2	YLD124.LOD1	0.041636
	11079	H	-15.699449	-11.328160	6.966161	H	2	YLD124.LOD1	0.048242
	11080	C	-18.218033	-12.393619	6.912676	C	2	YLD124.LOD1	-0.256632
	11081	H	-18.142433	-11.452365	6.349012	H	2	YLD124.LOD1	0.046696
	11082	H	-19.047264	-12.965105	6.477804	H	2	YLD124.LOD1	0.030906
	11083	H	-18.493640	-12.130897	7.941173	H	2	YLD124.LOD1	0.051975
	11084	C	-21.039704	-13.140771	8.418774	C	2	YLD124.LOD1	-0.203727
	11085	H	-21.148539	-12.127693	8.825308	H	2	YLD124.LOD1	0.027457
	11086	H	-19.980139	-13.413633	8.476318	H	2	YLD124.LOD1	0.031775
	11087	H	-21.316792	-13.096527	7.355670	H	2	YLD124.LOD1	0.046776
	11088	C	-21.763177	-15.546418	8.505558	C	2	YLD124.LOD1	-0.249027
	11089	H	-22.404514	-16.302309	8.975467	H	2	YLD124.LOD1	0.037596
	11090	H	-22.039459	-15.500968	7.442252	H	2	YLD124.LOD1	0.055765
	11091	H	-20.727769	-15.899426	8.566623	H	2	YLD124.LOD1	0.04836
	11092	C	-22.428966	-15.463382	11.949900	C	2	YLD124.LOD1	-0.409962
	11093	H	-22.382450	-16.458695	11.493886	H	2	YLD124.LOD1	0.090944
	11094	H	-22.079574	-15.555396	12.985605	H	2	YLD124.LOD1	0.090896
	11095	H	-23.483661	-15.165258	11.992119	H	2	YLD124.LOD1	0.069902
	11096	C	-21.555097	-12.611731	11.842962	C	2	YLD124.LOD1	-0.458602
	11097	H	-21.213903	-12.666042	12.884043	H	2	YLD124.LOD1	0.097974
	11098	H	-20.950393	-11.852717	11.334128	H	2	YLD124.LOD1	0.103309
	11099	H	-22.591749	-12.253931	11.862470	H	2	YLD124.LOD1	0.085827
	11100	C	-15.386908	-15.696976	7.849081	C	2	YLD124.LOD1	-0.493974
	11101	H	-14.626995	-15.115544	8.382629	H	2	YLD124.LOD1	0.11158
	11102	H	-15.487526	-16.659268	8.364162	H	2	YLD124.LOD1	0.113577
	11103	H	-15.009305	-15.897366	6.839697	H	2	YLD124.LOD1	0.09477
	11104	C	-18.280734	-15.909654	7.088646	C	2	YLD124.LOD1	-0.483575
	11105	H	-18.357814	-16.849017	7.649625	H	2	YLD124.LOD1	0.116965
	11106	H	-19.274199	-15.447197	7.076257	H	2	YLD124.LOD1	0.100121
	11107	H	-18.029712	-16.170098	6.053457	H	2	YLD124.LOD1	0.088084
	11108	Si	-16.991300	-14.828600	7.818140	Si	2	YLD124.LOD1	0.763339
	11109	Si	-21.435200	-14.241400	11.013000	Si	2	YLD124.LOD1	0.748472
	11110	H	-17.334703	-12.886742	10.562908	H	2	YLD124.LOD1	-0.009815
	11111	H	-17.465895	-16.681755	11.560218	H	2	YLD124.LOD1	0.057511
	11112	H	-18.995266	-16.335473	10.077866	H	2	YLD124.LOD1	-0.045737
	11113	H	-20.144605	-16.669172	11.387077	H	2	YLD124.LOD1	-0.011652
	11114	H	-18.602895	-16.547066	12.886078	H	2	YLD124.LOD1	0.023801
	11115	H	-15.894353	-13.799421	12.256010	H	2	YLD124.LOD1	-0.001966
	11116	H	-15.945238	-15.311572	11.374427	H	2	YLD124.LOD1	0.031172
	11117	H	-15.763631	-13.413490	9.936301	H	2	YLD124.LOD1	-0.066029
	11118	C	-23.020437	-8.025593	17.990686	C	2	YLD124.LOD1	-0.185058
	11119	H	-23.701632	-8.645329	17.395299	H	2	YLD124.LOD1	0.04722
	11120	H	-23.609471	-7.212433	18.431467	H	2	YLD124.LOD1	0.027573
	11121	H	-22.290669	-7.578475	17.308558	H	2	YLD124.LOD1	0.00699
	11122	C	-23.431436	-9.481155	19.989902	C	2	YLD124.LOD1	-0.347891
	11123	H	-24.094662	-10.135654	19.411339	H	2	YLD124.LOD1	0.075067
	11124	H	-22.993975	-10.077575	20.799879	H	2	YLD124.LOD1	0.071859
	11125	H	-24.051392	-8.699559	20.445412	H	2	YLD124.LOD1	0.077505
	11126	C	-0.730003	-0.497278	4.349412	C	1	YLD124_chi.LOD1	-0.150166
	11127	C	-1.298729	-0.067671	5.511757	C	1	YLD124_chi.LOD1	-0.190723
	11128	H	-1.727512	-0.803283	6.190534	H	1	YLD124_chi.LOD1	0.123134
	11129	H	-0.321885	0.249457	3.670311	H	1	YLD124_chi.LOD1	0.111619
	11130	N	-0.287740	-5.800450	2.291443	N	1	YLD124_chi.LOD1	-0.506176
	11131	C	-0.368321	-4.520985	2.815121	C	1	YLD124_chi.LOD1	0.404469
	11132	C	-0.929944	-4.275188	4.097258	C	1	YLD124_chi.LOD1	-0.281203
	11133	C	-1.050911	-2.992506	4.598731	C	1	YLD124_chi.LOD1	-0.112562
	11134	C	-0.614237	-1.860685	3.876482	C	1	YLD124_chi.LOD1	0.131862
	11135	C	-0.033339	-2.112199	2.616505	C	1	YLD124_chi.LOD1	-0.140167
	11136	C	0.093923	-3.389370	2.096791	C	1	YLD124_chi.LOD1	-0.26473
	11137	H	-1.275246	-5.097957	4.710698	H	1	YLD124_chi.LOD1	0.177954
	11138	H	-1.493449	-2.868800	5.582788	H	1	YLD124_chi.LOD1	0.098859
	11139	H	0.328538	-1.272539	2.026912	H	1	YLD124_chi.LOD1	0.103807
	11140	H	0.556918	-3.505089	1.124761	H	1	YLD124_chi.LOD1	0.161189
	11141	C	-1.428965	1.300293	5.934315	C	1	YLD124_chi.LOD1	0.100982
	11142	C	-2.091420	1.583847	7.107109	C	1	YLD124_chi.LOD1	-0.303623
	11143	C	-0.882418	2.433664	5.091783	C	1	YLD124_chi.LOD1	0.096207
	11144	H	-2.466718	0.753945	7.704011	H	1	YLD124_chi.LOD1	0.124941
	11145	C	-0.636121	3.741247	5.880129	C	1	YLD124_chi.LOD1	0.409462
	11146	H	0.053864	2.126338	4.610670	H	1	YLD124_chi.LOD1	-0.020765
	11147	C	-1.894626	4.057665	6.721656	C	1	YLD124_chi.LOD1	-0.014279
	11148	H	-2.721259	4.306647	6.038257	H	1	YLD124_chi.LOD1	-0.02177
	11149	C	-2.337275	2.902233	7.593965	C	1	YLD124_chi.LOD1	0.179445
	11150	C	-3.007897	2.927959	8.776605	C	1	YLD124_chi.LOD1	-0.27725
	11151	H	-3.293814	2.017451	9.302987	H	1	YLD124_chi.LOD1	0.132087
	11152	C	-3.368797	4.151157	9.385554	C	1	YLD124_chi.LOD1	0.141075
	11153	C	-4.051953	4.220627	10.582641	C	1	YLD124_chi.LOD1	-0.327608
	11154	H	-3.109379	5.073134	8.878297	H	1	YLD124_chi.LOD1	-0.027316
	11155	C	-4.466059	5.390249	11.256144	C	1	YLD124_chi.LOD1	0.260653
	11156	C	-5.216609	5.426751	12.425924	C	1	YLD124_chi.LOD1	-0.287606
	11157	C	-4.196906	6.844150	10.858526	C	1	YLD124_chi.LOD1	-0.056548
	11158	C	-5.474520	6.796052	12.782825	C	1	YLD124_chi.LOD1	0.509074
	11159	C	-5.654478	4.265229	13.111303	C	1	YLD124_chi.LOD1	0.396907
	11160	O	-4.923573	7.615495	11.855474	O	1	YLD124_chi.LOD1	-0.366332
	11161	C	-4.675139	7.341405	9.453204	C	1	YLD124_chi.LOD1	0.253806
	11162	C	-2.655674	7.341978	11.077763	C	1	YLD124_chi.LOD1	0.598114
	11163	C	-6.164406	7.360796	13.832811	C	1	YLD124_chi.LOD1	-0.43234
	11164	N	-5.971709	3.256695	13.599928	N	1	YLD124_chi.LOD1	-0.430249
	11165	C	-6.788181	6.577231	14.846050	C	1	YLD124_chi.LOD1	0.437474
	11166	C	-6.273577	8.779819	13.932696	C	1	YLD124_chi.LOD1	0.49223
	11167	N	-7.312833	5.975557	15.694158	N	1	YLD124_chi.LOD1	-0.451871
	11168	N	-6.372306	9.936386	14.025652	N	1	YLD124_chi.LOD1	-0.482758
	11169	H	-4.327786	3.285903	11.067774	H	1	YLD124_chi.LOD1	0.157364
	11170	H	-1.711357	4.955421	7.321174	H	1	YLD124_chi.LOD1	0.040059
	11171	H	-1.590579	2.632785	4.272302	H	1	YLD124_chi.LOD1	-0.024244
	11172	C	-0.674115	-6.970767	2.998552	C	1	YLD124_chi.LOD1	0.240322
	11173	C	0.325693	-6.096461	1.033411	C	1	YLD124_chi.LOD1	0.113854
	11174	C	1.681316	-6.536581	0.971676	C	1	YLD124_chi.LOD1	0.29958
	11175	C	0.342705	-7.763618	3.599329	C	1	YLD124_chi.LOD1	0.285774
	11176	O	1.471410	-7.051940	3.788570	O	1	YLD124_chi.LOD1	-0.61175
	11177	O	2.570320	-5.586930	1.322950	O	1	YLD124_chi.LOD1	-0.599726
	11178	C	4.840380	-5.187481	-0.342935	C	1	YLD124_chi.LOD1	0.275329
	11179	C	3.934993	-8.190733	5.013194	C	1	YLD124_chi.LOD1	0.358728
	11180	C	5.241363	-7.532499	5.509725	C	1	YLD124_chi.LOD1	-0.337707
	11181	H	5.182221	-7.242906	6.566289	H	1	YLD124_chi.LOD1	0.059176
	11182	H	6.082656	-8.233674	5.412442	H	1	YLD124_chi.LOD1	0.075606
	11183	H	5.499013	-6.637089	4.930748	H	1	YLD124_chi.LOD1	0.056098
	11184	C	6.024483	-4.602407	0.458154	C	1	YLD124_chi.LOD1	-0.311529
	11185	H	6.972427	-5.031089	0.102638	H	1	YLD124_chi.LOD1	0.071087
	11186	H	6.101481	-3.513435	0.348357	H	1	YLD124_chi.LOD1	0.058721
	11187	H	5.950690	-4.826740	1.529560	H	1	YLD124_chi.LOD1	0.056179
	11188	C	4.111113	-8.616983	3.539440	C	1	YLD124_chi.LOD1	-0.279876
	11189	H	3.198763	-9.073040	3.137068	H	1	YLD124_chi.LOD1	0.048405
	11190	H	4.371147	-7.768751	2.895083	H	1	YLD124_chi.LOD1	0.047411
	11191	H	4.919993	-9.356303	3.448224	H	1	YLD124_chi.LOD1	0.054899
	11192	C	3.656579	-9.448909	5.864169	C	1	YLD124_chi.LOD1	-0.273001
	11193	H	4.500418	-10.150775	5.795759	H	1	YLD124_chi.LOD1	0.0526
	11194	H	3.519471	-9.211293	6.926422	H	1	YLD124_chi.LOD1	0.034813
	11195	H	2.763692	-9.985688	5.521583	H	1	YLD124_chi.LOD1	0.061699
	11196	C	4.812843	-6.720543	-0.159978	C	1	YLD124_chi.LOD1	-0.202774
	11197	H	4.706181	-7.007351	0.893572	H	1	YLD124_chi.LOD1	0.027959
	11198	H	3.988605	-7.178487	-0.718046	H	1	YLD124_chi.LOD1	0.030756
	11199	H	5.750351	-7.164518	-0.524777	H	1	YLD124_chi.LOD1	0.045471
	11200	C	5.034765	-4.866258	-1.840836	C	1	YLD124_chi.LOD1	-0.266625
	11201	H	5.098419	-3.786506	-2.023576	H	1	YLD124_chi.LOD1	0.041283
	11202	H	5.969298	-5.313973	-2.208546	H	1	YLD124_chi.LOD1	0.059445
	11203	H	4.213718	-5.262668	-2.448416	H	1	YLD124_chi.LOD1	0.054675
	11204	C	2.022192	-4.109983	-1.085049	C	1	YLD124_chi.LOD1	-0.410828
	11205	H	2.467297	-3.492842	-1.873566	H	1	YLD124_chi.LOD1	0.093855
	11206	H	1.692270	-5.049376	-1.545550	H	1	YLD124_chi.LOD1	0.090546
	11207	H	1.122628	-3.594872	-0.726794	H	1	YLD124_chi.LOD1	0.070213
	11208	C	3.461156	-2.856040	1.211267	C	1	YLD124_chi.LOD1	-0.460074
	11209	H	4.123221	-3.005958	2.072905	H	1	YLD124_chi.LOD1	0.099819
	11210	H	3.909121	-2.080386	0.580231	H	1	YLD124_chi.LOD1	0.10243
	11211	H	2.513709	-2.463629	1.599939	H	1	YLD124_chi.LOD1	0.086844
	11212	C	3.083366	-5.213905	5.101455	C	1	YLD124_chi.LOD1	-0.477029
	11213	H	4.137523	-5.153425	5.393466	H	1	YLD124_chi.LOD1	0.107463
	11214	H	2.997313	-4.799967	4.090129	H	1	YLD124_chi.LOD1	0.106999
	11215	H	2.510960	-4.566313	5.775987	H	1	YLD124_chi.LOD1	0.090486
	11216	C	1.502082	-7.228822	6.660231	C	1	YLD124_chi.LOD1	-0.470103
	11217	H	0.708674	-6.478427	6.763170	H	1	YLD124_chi.LOD1	0.112461
	11218	H	1.031098	-8.218109	6.690029	H	1	YLD124_chi.LOD1	0.098066
	11219	H	2.141648	-7.146620	7.547165	H	1	YLD124_chi.LOD1	0.083138
	11220	Si	2.478360	-6.936250	5.136820	Si	1	YLD124_chi.LOD1	0.770043
	11221	Si	3.200540	-4.415960	0.284750	Si	1	YLD124_chi.LOD1	0.73989
	11222	H	-0.002468	-8.174347	4.559309	H	1	YLD124_chi.LOD1	-0.017464
	11223	H	-0.317473	-6.805838	0.504895	H	1	YLD124_chi.LOD1	0.058354
	11224	H	1.748308	-7.379023	1.674847	H	1	YLD124_chi.LOD1	-0.04034
	11225	H	1.929899	-6.920552	-0.029117	H	1	YLD124_chi.LOD1	-0.007901
	11226	H	0.315080	-5.173634	0.444007	H	1	YLD124_chi.LOD1	0.028132
	11227	H	-1.350846	-6.650513	3.797281	H	1	YLD124_chi.LOD1	-0.011538
	11228	H	-1.269390	-7.592290	2.323562	H	1	YLD124_chi.LOD1	0.020652
	11229	H	0.556225	-8.614102	2.937046	H	1	YLD124_chi.LOD1	-0.064856
	11230	C	0.572262	3.524009	6.775958	C	1	YLD124_chi.LOD1	-0.299384
	11231	H	1.472567	3.327342	6.181565	H	1	YLD124_chi.LOD1	0.066854
	11232	H	0.744792	4.445462	7.344831	H	1	YLD124_chi.LOD1	0.072315
	11233	H	0.457988	2.704719	7.492567	H	1	YLD124_chi.LOD1	0.027971
	11234	C	-0.411675	4.822230	4.870938	C	1	YLD124_chi.LOD1	-0.427943
	11235	H	0.464996	4.618070	4.244345	H	1	YLD124_chi.LOD1	0.089807
	11236	H	-1.271556	4.973120	4.206866	H	1	YLD124_chi.LOD1	0.091303
	11237	H	-0.227852	5.764217	5.401513	H	1	YLD124_chi.LOD1	0.089757
	11238	C	-5.962870	6.904278	9.107846	C	1	YLD124_chi.LOD1	-0.158763
	11239	C	-3.965972	8.139602	8.546527	C	1	YLD124_chi.LOD1	-0.147279
	11240	C	-6.527609	7.249852	7.883422	C	1	YLD124_chi.LOD1	-0.065518
	11241	H	-6.529052	6.291415	9.802728	H	1	YLD124_chi.LOD1	0.080042
	11242	C	-4.532145	8.476989	7.315203	C	1	YLD124_chi.LOD1	-0.090746
	11243	H	-2.977808	8.511060	8.784462	H	1	YLD124_chi.LOD1	0.09871
	11244	C	-5.810776	8.036273	6.979262	C	1	YLD124_chi.LOD1	-0.09866
	11245	H	-7.527309	6.903898	7.636965	H	1	YLD124_chi.LOD1	0.104949
	11246	H	-6.248808	8.306232	6.022409	H	1	YLD124_chi.LOD1	0.102095
	11247	H	-3.968359	9.096652	6.623558	H	1	YLD124_chi.LOD1	0.105434
	11248	F	-2.285092	6.939070	12.302678	F	1	YLD124_chi.LOD1	-0.19867
	11249	F	-2.455677	8.667802	11.005508	F	1	YLD124_chi.LOD1	-0.154403
	11250	F	-1.831892	6.752829	10.182208	F	1	YLD124_chi.LOD1	-0.186491
	11251	C	-4.491321	-8.919996	14.414766	C	2	YLD124_chi.LOD1	-0.150166
	11252	C	-5.153785	-10.111657	14.426794	C	2	YLD124_chi.LOD1	-0.190723
	11253	H	-4.589092	-11.028723	14.266076	H	2	YLD124_chi.LOD1	0.123134
	11254	H	-5.069987	-8.008899	14.557597	H	2	YLD124_chi.LOD1	0.111619
	11255	N	1.045185	-7.876665	13.513088	N	2	YLD124_chi.LOD1	-0.506176
	11256	C	-0.290269	-8.142229	13.765679	C	2	YLD124_chi.LOD1	0.404469
	11257	C	-0.787691	-9.472405	13.819679	C	2	YLD124_chi.LOD1	-0.281203
	11258	C	-2.129422	-9.733714	14.026697	C	2	YLD124_chi.LOD1	-0.112562
	11259	C	-3.075140	-8.701287	14.208513	C	2	YLD124_chi.LOD1	0.131862
	11260	C	-2.572176	-7.384282	14.180801	C	2	YLD124_chi.LOD1	-0.140167
	11261	C	-1.232447	-7.103065	13.972219	C	2	YLD124_chi.LOD1	-0.26473
	11262	H	-0.116267	-10.313401	13.699657	H	2	YLD124_chi.LOD1	0.177954
	11263	H	-2.449328	-10.771263	14.052476	H	2	YLD124_chi.LOD1	0.098859
	11264	H	-3.260835	-6.554878	14.327231	H	2	YLD124_chi.LOD1	0.103807
	11265	H	-0.918884	-6.066593	13.970638	H	2	YLD124_chi.LOD1	0.161189
	11266	C	-6.569865	-10.290180	14.599098	C	2	YLD124_chi.LOD1	0.100982
	11267	C	-7.104850	-11.555909	14.518992	C	2	YLD124_chi.LOD1	-0.303623
	11268	C	-7.484379	-9.105407	14.829488	C	2	YLD124_chi.LOD1	0.096207
	11269	H	-6.428755	-12.395465	14.364325	H	2	YLD124_chi.LOD1	0.124941
	11270	C	-8.833447	-9.471563	15.491206	C	2	YLD124_chi.LOD1	0.409462
	11271	H	-6.977431	-8.354080	15.446783	H	2	YLD124_chi.LOD1	-0.020765
	11272	C	-9.446290	-10.674023	14.735802	C	2	YLD124_chi.LOD1	-0.014279
	11273	H	-9.723466	-10.347866	13.721335	H	2	YLD124_chi.LOD1	-0.02177
	11274	C	-8.498461	-11.847766	14.609990	C	2	YLD124_chi.LOD1	0.179445
	11275	C	-8.783547	-13.173290	14.505669	C	2	YLD124_chi.LOD1	-0.27725
	11276	H	-8.005551	-13.928543	14.395370	H	2	YLD124_chi.LOD1	0.132087
	11277	C	-10.117679	-13.638500	14.536552	C	2	YLD124_chi.LOD1	0.141075
	11278	C	-10.449375	-14.973897	14.430544	C	2	YLD124_chi.LOD1	-0.327608
	11279	H	-10.913474	-12.908938	14.631930	H	2	YLD124_chi.LOD1	-0.027316
	11280	C	-11.747725	-15.528296	14.436257	C	2	YLD124_chi.LOD1	0.260653
	11281	C	-12.053656	-16.872417	14.255186	C	2	YLD124_chi.LOD1	-0.287606
	11282	C	-13.077705	-14.794839	14.630081	C	2	YLD124_chi.LOD1	-0.056548
	11283	C	-13.481540	-17.043195	14.284614	C	2	YLD124_chi.LOD1	0.509074
	11284	C	-11.074089	-17.877754	14.054307	C	2	YLD124_chi.LOD1	0.396907
	11285	O	-14.076564	-15.838605	14.457580	O	2	YLD124_chi.LOD1	-0.366332
	11286	C	-13.448596	-13.635256	13.645802	C	2	YLD124_chi.LOD1	0.253806
	11287	C	-13.362232	-14.276785	16.154054	C	2	YLD124_chi.LOD1	0.598114
	11288	C	-14.279606	-18.157892	14.150853	C	2	YLD124_chi.LOD1	-0.43234
	11289	N	-10.199760	-18.629865	13.891804	N	2	YLD124_chi.LOD1	-0.430249
	11290	C	-13.742235	-19.462167	13.951299	C	2	YLD124_chi.LOD1	0.437474
	11291	C	-15.699267	-18.029185	14.210179	C	2	YLD124_chi.LOD1	0.49223
	11292	N	-13.345900	-20.544888	13.786398	N	2	YLD124_chi.LOD1	-0.451871
	11293	N	-16.859374	-17.938558	14.254600	N	2	YLD124_chi.LOD1	-0.482758
	11294	H	-9.640610	-15.692582	14.309968	H	2	YLD124_chi.LOD1	0.157364
	11295	H	-10.378195	-10.971953	15.227499	H	2	YLD124_chi.LOD1	0.040059
	11296	H	-7.676583	-8.618776	13.860499	H	2	YLD124_chi.LOD1	-0.024244
	11297	C	2.027006	-8.893208	13.371408	C	2	YLD124_chi.LOD1	0.240322
	11298	C	1.577777	-6.549579	13.517585	C	2	YLD124_chi.LOD1	0.113854
	11299	C	1.969060	-5.973736	14.759756	C	2	YLD124_chi.LOD1	0.29958
	11300	C	2.849650	-9.301130	14.465965	C	2	YLD124_chi.LOD1	0.285774
	11301	O	4.031750	-8.661360	14.564000	O	2	YLD124_chi.LOD1	-0.61175
	11302	O	1.109570	-6.286080	15.749300	O	2	YLD124_chi.LOD1	-0.599726
	11303	C	-0.212916	-7.167853	18.124092	C	2	YLD124_chi.LOD1	0.275329
	11304	C	6.632195	-10.030940	15.034578	C	2	YLD124_chi.LOD1	0.358728
	11305	C	7.571125	-10.969519	14.244706	C	2	YLD124_chi.LOD1	-0.337707
	11306	H	8.241358	-10.415658	13.575591	H	2	YLD124_chi.LOD1	0.059176
	11307	H	8.204918	-11.544335	14.935196	H	2	YLD124_chi.LOD1	0.075606
	11308	H	7.015440	-11.694592	13.637383	H	2	YLD124_chi.LOD1	0.056098
	11309	C	-1.338921	-7.035509	17.074925	C	2	YLD124_chi.LOD1	-0.311529
	11310	H	-2.285547	-7.417401	17.483356	H	2	YLD124_chi.LOD1	0.071087
	11311	H	-1.511536	-5.992484	16.781414	H	2	YLD124_chi.LOD1	0.058721
	11312	H	-1.125828	-7.608971	16.164204	H	2	YLD124_chi.LOD1	0.056179
	11313	C	5.759030	-10.874251	15.989076	C	2	YLD124_chi.LOD1	-0.279876
	11314	H	5.060455	-10.249674	16.558434	H	2	YLD124_chi.LOD1	0.048405
	11315	H	5.170020	-11.625926	15.450222	H	2	YLD124_chi.LOD1	0.047411
	11316	H	6.389960	-11.410883	16.712371	H	2	YLD124_chi.LOD1	0.054899
	11317	C	7.490163	-9.059573	15.874231	C	2	YLD124_chi.LOD1	-0.273001
	11318	H	8.147330	-9.620674	16.554421	H	2	YLD124_chi.LOD1	0.0526
	11319	H	8.134730	-8.427705	15.250600	H	2	YLD124_chi.LOD1	0.034813
	11320	H	6.872426	-8.400093	16.495705	H	2	YLD124_chi.LOD1	0.061699
	11321	C	-0.046742	-8.655212	18.504433	C	2	YLD124_chi.LOD1	-0.202774
	11322	H	0.201666	-9.276902	17.635297	H	2	YLD124_chi.LOD1	0.027959
	11323	H	0.740903	-8.794350	19.253284	H	2	YLD124_chi.LOD1	0.030756
	11324	H	-0.982919	-9.046930	18.927804	H	2	YLD124_chi.LOD1	0.045471
	11325	C	-0.601764	-6.369317	19.387349	C	2	YLD124_chi.LOD1	-0.266625
	11326	H	-0.768810	-5.307978	19.166069	H	2	YLD124_chi.LOD1	0.041283
	11327	H	-1.535039	-6.763167	19.815003	H	2	YLD124_chi.LOD1	0.059445
	11328	H	0.172315	-6.434309	20.160000	H	2	YLD124_chi.LOD1	0.054675
	11329	C	2.811686	-7.659086	17.620668	C	2	YLD124_chi.LOD1	-0.410828
	11330	H	2.488210	-8.698517	17.495415	H	2	YLD124_chi.LOD1	0.093855
	11331	H	3.615006	-7.472241	16.897387	H	2	YLD124_chi.LOD1	0.090546
	11332	H	3.252086	-7.565506	18.620764	H	2	YLD124_chi.LOD1	0.070213
	11333	C	1.887129	-4.869162	18.128530	C	2	YLD124_chi.LOD1	-0.460074
	11334	H	1.961266	-4.086472	17.363596	H	2	YLD124_chi.LOD1	0.099819
	11335	H	1.154253	-4.537176	18.872301	H	2	YLD124_chi.LOD1	0.10243
	11336	H	2.863555	-4.925512	18.624639	H	2	YLD124_chi.LOD1	0.086844
	11337	C	4.993217	-10.110731	12.403319	C	2	YLD124_chi.LOD1	-0.477029
	11338	H	4.078420	-10.672972	12.620585	H	2	YLD124_chi.LOD1	0.107463
	11339	H	4.796419	-9.488898	11.522339	H	2	YLD124_chi.LOD1	0.106999
	11340	H	5.773942	-10.831836	12.134072	H	2	YLD124_chi.LOD1	0.090486
	11341	C	6.321254	-7.550064	13.219241	C	2	YLD124_chi.LOD1	-0.470103
	11342	H	5.596390	-6.738275	13.082291	H	2	YLD124_chi.LOD1	0.112461
	11343	H	7.103106	-7.188004	13.896753	H	2	YLD124_chi.LOD1	0.098066
	11344	H	6.792715	-7.729959	12.245682	H	2	YLD124_chi.LOD1	0.083138
	11345	Si	5.488900	-9.069080	13.818600	Si	2	YLD124_chi.LOD1	0.770043
	11346	Si	1.423800	-6.483770	17.395000	Si	2	YLD124_chi.LOD1	0.73989
	11347	H	2.237788	-9.088788	15.354751	H	2	YLD124_chi.LOD1	-0.017464
	11348	H	2.415850	-6.518166	12.815549	H	2	YLD124_chi.LOD1	0.058354
	11349	H	2.966048	-6.368399	15.002451	H	2	YLD124_chi.LOD1	-0.04034
	11350	H	2.056671	-4.879709	14.680736	H	2	YLD124_chi.LOD1	-0.007901
	11351	H	0.808229	-5.887147	13.107589	H	2	YLD124_chi.LOD1	0.028132
	11352	H	1.524120	-9.768495	12.947764	H	2	YLD124_chi.LOD1	-0.011538
	11353	H	2.753023	-8.564633	12.622281	H	2	YLD124_chi.LOD1	0.020652
	11354	H	3.024584	-10.385691	14.440281	H	2	YLD124_chi.LOD1	-0.064856
	11355	C	-8.558152	-9.828712	16.942663	C	2	YLD124_chi.LOD1	-0.299384
	11356	H	-8.149835	-8.969841	17.488692	H	2	YLD124_chi.LOD1	0.066854
	11357	H	-9.510783	-10.099101	17.413668	H	2	YLD124_chi.LOD1	0.072315
	11358	H	-7.869055	-10.668614	17.075066	H	2	YLD124_chi.LOD1	0.027971
	11359	C	-9.722994	-8.276630	15.356221	C	2	YLD124_chi.LOD1	-0.427943
	11360	H	-9.306592	-7.399782	15.866710	H	2	YLD124_chi.LOD1	0.089807
	11361	H	-9.911713	-7.999309	14.311887	H	2	YLD124_chi.LOD1	0.091303
	11362	H	-10.688895	-8.504342	15.822934	H	2	YLD124_chi.LOD1	0.089757
	11363	C	-13.168783	-13.924505	12.301688	C	2	YLD124_chi.LOD1	-0.158763
	11364	C	-14.001670	-12.389464	13.968617	C	2	YLD124_chi.LOD1	-0.147279
	11365	C	-13.428480	-12.990019	11.303259	C	2	YLD124_chi.LOD1	-0.065518
	11366	H	-12.747234	-14.888617	12.033716	H	2	YLD124_chi.LOD1	0.080042
	11367	C	-14.252640	-11.450881	12.965315	C	2	YLD124_chi.LOD1	-0.090746
	11368	H	-14.248038	-12.136565	14.991558	H	2	YLD124_chi.LOD1	0.09871
	11369	C	-13.969200	-11.745575	11.633099	C	2	YLD124_chi.LOD1	-0.09866
	11370	H	-13.207692	-13.235205	10.268387	H	2	YLD124_chi.LOD1	0.104949
	11371	H	-14.171551	-11.013992	10.855822	H	2	YLD124_chi.LOD1	0.102095
	11372	H	-14.681646	-10.489379	13.233043	H	2	YLD124_chi.LOD1	0.105434
	11373	F	-12.250343	-13.669761	16.595988	F	2	YLD124_chi.LOD1	-0.19867
	11374	F	-13.593221	-15.335094	16.947561	F	2	YLD124_chi.LOD1	-0.154403
	11375	F	-14.392489	-13.415078	16.308214	F	2	YLD124_chi.LOD1	-0.186491
	11376	C	-19.388683	-10.320039	21.318784	C	1	YLD124.LOD1	-0.158041
	11377	C	-20.061770	-11.469192	21.611142	C	1	YLD124.LOD1	-0.174247
	11378	H	-19.722284	-12.403373	21.166447	H	1	YLD124.LOD1	0.11023
	11379	H	-19.744548	-9.389125	21.757100	H	1	YLD124.LOD1	0.116594
	11380	N	-14.810290	-9.573166	17.994999	N	1	YLD124.LOD1	-0.477879
	11381	C	-15.911164	-9.767047	18.812334	C	1	YLD124.LOD1	0.383639
	11382	C	-16.475106	-11.056923	19.007445	C	1	YLD124.LOD1	-0.278193
	11383	C	-17.591240	-11.244560	19.801285	C	1	YLD124.LOD1	-0.102205
	11384	C	-18.226273	-10.174265	20.468036	C	1	YLD124.LOD1	0.126725
	11385	C	-17.657094	-8.898026	20.279394	C	1	YLD124.LOD1	-0.148338
	11386	C	-16.539731	-8.690673	19.488028	C	1	YLD124.LOD1	-0.248652
	11387	H	-16.034402	-11.924895	18.533222	H	1	YLD124.LOD1	0.176041
	11388	H	-17.976942	-12.254091	19.908589	H	1	YLD124.LOD1	0.098595
	11389	H	-18.107857	-8.041989	20.777009	H	1	YLD124.LOD1	0.105176
	11390	H	-16.152324	-7.683363	19.399398	H	1	YLD124.LOD1	0.157607
	11391	C	-21.217723	-11.584581	22.457851	C	1	YLD124.LOD1	0.13089
	11392	C	-21.809622	-12.816151	22.624717	C	1	YLD124.LOD1	-0.298955
	11393	C	-21.806198	-10.373214	23.150446	C	1	YLD124.LOD1	0.000678
	11394	H	-21.364776	-13.676364	22.126681	H	1	YLD124.LOD1	0.128536
	11395	C	-22.651857	-10.713221	24.400177	C	1	YLD124.LOD1	0.312314
	11396	H	-21.007743	-9.679427	23.439232	H	1	YLD124.LOD1	0.009572
	11397	C	-23.644143	-11.842164	24.035431	C	1	YLD124.LOD1	0.132423
	11398	H	-24.374141	-11.447889	23.311500	H	1	YLD124.LOD1	-0.011706
	11399	C	-22.974068	-13.049689	23.415313	C	1	YLD124.LOD1	0.094029
	11400	C	-23.347192	-14.357403	23.462371	C	1	YLD124.LOD1	-0.194272
	11401	H	-22.791285	-15.138885	22.944573	H	1	YLD124.LOD1	0.118653
	11402	C	-24.481351	-14.768273	24.198431	C	1	YLD124.LOD1	0.029031
	11403	C	-24.874673	-16.087122	24.300380	C	1	YLD124.LOD1	-0.298661
	11404	H	-25.059872	-14.010205	24.713315	H	1	YLD124.LOD1	0.063317
	11405	C	-25.964423	-16.589734	25.043910	C	1	YLD124.LOD1	0.24754
	11406	C	-26.285142	-17.933210	25.203488	C	1	YLD124.LOD1	-0.281071
	11407	C	-27.001506	-15.791392	25.838887	C	1	YLD124.LOD1	-0.098074
	11408	C	-27.422950	-18.049616	26.075624	C	1	YLD124.LOD1	0.526995
	11409	C	-25.554890	-18.989092	24.601557	C	1	YLD124.LOD1	0.389724
	11410	O	-27.804790	-16.815792	26.486155	O	1	YLD124.LOD1	-0.351072
	11411	C	-28.097939	-14.999773	24.932452	C	1	YLD124.LOD1	0.617997
	11412	C	-26.503042	-14.819460	26.957875	C	1	YLD124.LOD1	0.253109
	11413	C	-28.117720	-19.142679	26.544208	C	1	YLD124.LOD1	-0.451385
	11414	N	-24.892185	-19.786090	24.070373	N	1	YLD124.LOD1	-0.428829
	11415	F	-28.560258	-15.873266	24.025232	F	1	YLD124.LOD1	-0.200469
	11416	F	-29.152194	-14.501240	25.597471	F	1	YLD124.LOD1	-0.158364
	11417	F	-27.513681	-13.980918	24.263382	F	1	YLD124.LOD1	-0.193377
	11418	C	-25.127473	-14.555640	26.878672	C	1	YLD124.LOD1	-0.158716
	11419	C	-27.236048	-14.279534	28.022238	C	1	YLD124.LOD1	-0.162688
	11420	C	-27.778230	-20.477111	26.178407	C	1	YLD124.LOD1	0.447489
	11421	C	-29.221558	-18.959729	27.429440	C	1	YLD124.LOD1	0.491336
	11422	H	-24.544240	-14.973839	26.063710	H	1	YLD124.LOD1	0.085247
	11423	C	-24.498148	-13.764549	27.835428	C	1	YLD124.LOD1	-0.074329
	11424	C	-26.603019	-13.478112	28.975545	C	1	YLD124.LOD1	-0.055824
	11425	H	-28.295032	-14.476239	28.127440	H	1	YLD124.LOD1	0.099228
	11426	N	-27.534974	-21.583050	25.905880	N	1	YLD124.LOD1	-0.454587
	11427	N	-30.122946	-18.825272	28.154318	N	1	YLD124.LOD1	-0.481156
	11428	H	-23.431440	-13.575091	27.757942	H	1	YLD124.LOD1	0.111202
	11429	C	-25.236716	-13.218042	28.887240	C	1	YLD124.LOD1	-0.106678
	11430	H	-27.185605	-13.068050	29.795755	H	1	YLD124.LOD1	0.095951
	11431	H	-24.748067	-12.599153	29.634596	H	1	YLD124.LOD1	0.103827
	11432	H	-24.278797	-16.839438	23.786462	H	1	YLD124.LOD1	0.159396
	11433	H	-24.215806	-12.121264	24.926533	H	1	YLD124.LOD1	-0.052081
	11434	H	-22.432956	-9.827500	22.428056	H	1	YLD124.LOD1	-0.003289
	11435	C	-14.093857	-10.630259	17.375477	C	1	YLD124.LOD1	0.198954
	11436	C	-14.198240	-8.293222	17.833362	C	1	YLD124.LOD1	0.115128
	11437	C	-13.294187	-7.768989	18.810340	C	1	YLD124.LOD1	0.306486
	11438	C	-12.859124	-11.041720	17.953262	C	1	YLD124.LOD1	0.28632
	11439	O	-12.790600	-10.694100	19.252900	O	1	YLD124.LOD1	-0.606883
	11440	O	-13.875100	-7.049330	19.789900	O	1	YLD124.LOD1	-0.600198
	11441	C	-14.439224	-5.123236	21.788586	C	1	YLD124.LOD1	0.267162
	11442	C	-13.068482	-10.683559	22.215995	C	1	YLD124.LOD1	0.369124
	11443	C	-12.935028	-11.594064	23.457142	C	1	YLD124.LOD1	-0.324271
	11444	H	-11.906777	-11.948339	23.602020	H	1	YLD124.LOD1	0.053925
	11445	H	-13.218608	-11.042895	24.365274	H	1	YLD124.LOD1	0.070181
	11446	H	-13.587079	-12.473817	23.396425	H	1	YLD124.LOD1	0.052098
	11447	C	-14.388029	-3.621164	22.145795	C	1	YLD124.LOD1	-0.316887
	11448	H	-14.774297	-3.459786	23.162375	H	1	YLD124.LOD1	0.07213
	11449	H	-13.365413	-3.224393	22.121593	H	1	YLD124.LOD1	0.059956
	11450	H	-14.999552	-3.013407	21.467319	H	1	YLD124.LOD1	0.057948
	11451	C	-14.529972	-10.199060	22.100322	C	1	YLD124.LOD1	-0.260833
	11452	H	-14.676328	-9.555073	21.225149	H	1	YLD124.LOD1	0.041714
	11453	H	-15.233036	-11.036366	22.017527	H	1	YLD124.LOD1	0.041636
	11454	H	-14.814823	-9.620275	22.990907	H	1	YLD124.LOD1	0.048242
	11455	C	-12.149299	-9.456504	22.399731	C	1	YLD124.LOD1	-0.256632
	11456	H	-12.415238	-8.913762	23.318479	H	1	YLD124.LOD1	0.046696
	11457	H	-11.092445	-9.737821	22.484911	H	1	YLD124.LOD1	0.030906
	11458	H	-12.242411	-8.746659	21.568927	H	1	YLD124.LOD1	0.051975
	11459	C	-15.901107	-5.613626	21.873150	C	1	YLD124.LOD1	-0.203727
	11460	H	-16.559232	-5.057905	21.193820	H	1	YLD124.LOD1	0.027457
	11461	H	-15.985360	-6.677809	21.626457	H	1	YLD124.LOD1	0.031775
	11462	H	-16.291605	-5.474053	22.891460	H	1	YLD124.LOD1	0.046776
	11463	C	-13.585621	-5.913904	22.803977	C	1	YLD124.LOD1	-0.249027
	11464	H	-12.541098	-5.578588	22.809657	H	1	YLD124.LOD1	0.037596
	11465	H	-13.977488	-5.774603	23.821844	H	1	YLD124.LOD1	0.055765
	11466	H	-13.592453	-6.987967	22.587743	H	1	YLD124.LOD1	0.04836
	11467	C	-12.010758	-4.856315	19.851826	C	1	YLD124.LOD1	-0.409962
	11468	H	-11.368296	-5.354378	20.586629	H	1	YLD124.LOD1	0.090944
	11469	H	-11.614225	-5.084046	18.854766	H	1	YLD124.LOD1	0.090896
	11470	H	-11.908101	-3.774224	19.998745	H	1	YLD124.LOD1	0.069902
	11471	C	-14.762447	-4.515570	18.747679	C	1	YLD124.LOD1	-0.458602
	11472	H	-14.393124	-4.720047	17.735255	H	1	YLD124.LOD1	0.097974
	11473	H	-15.814038	-4.821140	18.785948	H	1	YLD124.LOD1	0.103309
	11474	H	-14.725809	-3.428625	18.890010	H	1	YLD124.LOD1	0.085827
	11475	C	-13.760304	-13.052917	20.332019	C	1	YLD124.LOD1	-0.493974
	11476	H	-14.781957	-12.697991	20.157496	H	1	YLD124.LOD1	0.11158
	11477	H	-13.452557	-13.620228	19.446081	H	1	YLD124.LOD1	0.113577
	11478	H	-13.786042	-13.747311	21.179811	H	1	YLD124.LOD1	0.09477
	11479	C	-10.887604	-12.281125	20.718187	C	1	YLD124.LOD1	-0.483575
	11480	H	-10.620351	-12.822656	19.802565	H	1	YLD124.LOD1	0.116965
	11481	H	-10.151521	-11.481442	20.858479	H	1	YLD124.LOD1	0.100121
	11482	H	-10.771483	-12.981113	21.554245	H	1	YLD124.LOD1	0.088084
	11483	Si	-12.612100	-11.664600	20.621000	Si	1	YLD124.LOD1	0.763339
	11484	Si	-13.759200	-5.380940	20.014100	Si	1	YLD124.LOD1	0.748472
	11485	H	-12.723078	-12.128638	17.853653	H	1	YLD124.LOD1	-0.009815
	11486	H	-13.718564	-8.267644	16.850795	H	1	YLD124.LOD1	0.057511
	11487	H	-12.809878	-8.657252	19.240849	H	1	YLD124.LOD1	-0.045737
	11488	H	-12.509927	-7.165721	18.328855	H	1	YLD124.LOD1	-0.011652
	11489	H	-14.999415	-7.547292	17.804383	H	1	YLD124.LOD1	0.023801
	11490	H	-14.753037	-11.504803	17.372747	H	1	YLD124.LOD1	-0.001966
	11491	H	-13.936812	-10.361511	16.327262	H	1	YLD124.LOD1	0.031172
	11492	H	-12.044015	-10.557069	17.398228	H	1	YLD124.LOD1	-0.066029
	11493	C	-21.699447	-11.167049	25.500993	C	1	YLD124.LOD1	-0.185058
	11494	H	-21.013109	-10.359842	25.783736	H	1	YLD124.LOD1	0.04722
	11495	H	-22.295882	-11.421965	26.385166	H	1	YLD124.LOD1	0.027573
	11496	H	-21.097749	-12.042983	25.239318	H	1	YLD124.LOD1	0.00699
	11497	C	-23.400612	-9.475810	24.772846	C	1	YLD124.LOD1	-0.347891
	11498	H	-22.723960	-8.648536	25.019287	H	1	YLD124.LOD1	0.075067
	11499	H	-24.076247	-9.132311	23.979956	H	1	YLD124.LOD1	0.071859
	11500	H	-24.006269	-9.685436	25.662770	H	1	YLD124.LOD1	0.077505
	11501	C	-5.074310	-8.893525	11.096204	C	2	YLD124.LOD1	-0.158041
	11502	C	-3.745098	-8.726175	10.842710	C	2	YLD124.LOD1	-0.174247
	11503	H	-3.153603	-9.592806	10.551534	H	2	YLD124.LOD1	0.11023
	11504	H	-5.654018	-8.023607	11.400414	H	2	YLD124.LOD1	0.116594
	11505	N	-8.222344	-13.645879	10.827752	N	2	YLD124.LOD1	-0.477879
	11506	C	-7.453517	-12.495100	10.874228	C	2	YLD124.LOD1	0.383639
	11507	C	-6.067220	-12.513271	10.561607	C	2	YLD124.LOD1	-0.278193
	11508	C	-5.295122	-11.368938	10.635861	C	2	YLD124.LOD1	-0.102205
	11509	C	-5.837014	-10.121477	11.014737	C	2	YLD124.LOD1	0.126725
	11510	C	-7.214853	-10.106542	11.314195	C	2	YLD124.LOD1	-0.148338
	11511	C	-8.004064	-11.242410	11.245586	C	2	YLD124.LOD1	-0.248652
	11512	H	-5.586805	-13.434030	10.255199	H	2	YLD124.LOD1	0.176041
	11513	H	-4.240830	-11.448005	10.387567	H	2	YLD124.LOD1	0.098595
	11514	H	-7.679800	-9.167286	11.606133	H	2	YLD124.LOD1	0.105176
	11515	H	-9.057478	-11.151336	11.479332	H	2	YLD124.LOD1	0.157607
	11516	C	-3.011276	-7.493545	10.935365	C	2	YLD124.LOD1	0.13089
	11517	C	-1.658065	-7.495178	10.682834	C	2	YLD124.LOD1	-0.298955
	11518	C	-3.696503	-6.200744	11.325916	C	2	YLD124.LOD1	0.000678
	11519	H	-1.186367	-8.432970	10.393110	H	2	YLD124.LOD1	0.128536
	11520	C	-2.947695	-4.928486	10.864163	C	2	YLD124.LOD1	0.312314
	11521	H	-4.716503	-6.178673	10.924193	H	2	YLD124.LOD1	0.009572
	11522	C	-1.457803	-5.059388	11.258210	C	2	YLD124.LOD1	0.132423
	11523	H	-1.381627	-5.036889	12.356443	H	2	YLD124.LOD1	-0.011706
	11524	C	-0.821004	-6.343131	10.770197	C	2	YLD124.LOD1	0.094029
	11525	C	0.474939	-6.584644	10.432782	C	2	YLD124.LOD1	-0.194272
	11526	H	0.819665	-7.570235	10.120313	H	2	YLD124.LOD1	0.118653
	11527	C	1.443116	-5.555827	10.465720	C	2	YLD124.LOD1	0.029031
	11528	C	2.759381	-5.749542	10.099145	C	2	YLD124.LOD1	-0.298661
	11529	H	1.130408	-4.568372	10.784476	H	2	YLD124.LOD1	0.063317
	11530	C	3.779445	-4.774288	10.062202	C	2	YLD124.LOD1	0.24754
	11531	C	5.076002	-4.975433	9.602057	C	2	YLD124.LOD1	-0.281071
	11532	C	3.686227	-3.307074	10.490538	C	2	YLD124.LOD1	-0.098074
	11533	C	5.800599	-3.734607	9.665990	C	2	YLD124.LOD1	0.526995
	11534	C	5.553138	-6.223224	9.126836	C	2	YLD124.LOD1	0.389724
	11535	O	4.982884	-2.758002	10.128853	O	2	YLD124.LOD1	-0.351072
	11536	C	3.634181	-3.065526	12.099639	C	2	YLD124.LOD1	0.617997
	11537	C	2.598875	-2.399740	9.827452	C	2	YLD124.LOD1	0.253109
	11538	C	7.094773	-3.404060	9.329960	C	2	YLD124.LOD1	-0.451385
	11539	N	5.851774	-7.284538	8.751380	N	2	YLD124.LOD1	-0.428829
	11540	F	4.619106	-3.800206	12.638105	F	2	YLD124.LOD1	-0.200469
	11541	F	3.800495	-1.796078	12.503471	F	2	YLD124.LOD1	-0.158364
	11542	F	2.463261	-3.509568	12.608414	F	2	YLD124.LOD1	-0.193377
	11543	C	1.460046	-3.106054	9.412419	C	2	YLD124.LOD1	-0.158716
	11544	C	2.695404	-1.034730	9.528930	C	2	YLD124.LOD1	-0.162688
	11545	C	8.019665	-4.361208	8.821810	C	2	YLD124.LOD1	0.447489
	11546	C	7.551118	-2.061393	9.486673	C	2	YLD124.LOD1	0.491336
	11547	H	1.374427	-4.166603	9.629487	H	2	YLD124.LOD1	0.085247
	11548	C	0.436537	-2.463741	8.721680	C	2	YLD124.LOD1	-0.074329
	11549	C	1.661925	-0.391083	8.843775	C	2	YLD124.LOD1	-0.055824
	11550	H	3.566725	-0.460656	9.816062	H	2	YLD124.LOD1	0.099228
	11551	N	8.807204	-5.110404	8.403441	N	2	YLD124.LOD1	-0.454587
	11552	N	7.936211	-0.969053	9.607181	N	2	YLD124.LOD1	-0.481156
	11553	H	-0.435363	-3.029398	8.406102	H	2	YLD124.LOD1	0.111202
	11554	C	0.532364	-1.099556	8.438343	C	2	YLD124.LOD1	-0.106678
	11555	H	1.752891	0.667878	8.618766	H	2	YLD124.LOD1	0.095951
	11556	H	-0.265787	-0.595604	7.900449	H	2	YLD124.LOD1	0.103827
	11557	H	3.057701	-6.743907	9.771421	H	2	YLD124.LOD1	0.159396
	11558	H	-0.910641	-4.183470	10.894704	H	2	YLD124.LOD1	-0.052081
	11559	H	-3.803597	-6.178883	12.421603	H	2	YLD124.LOD1	-0.003289
	11560	C	-7.731134	-14.896297	10.370238	C	2	YLD124.LOD1	0.198954
	11561	C	-9.627844	-13.647053	11.081691	C	2	YLD124.LOD1	0.115128
	11562	C	-10.509387	-13.484730	9.974640	C	2	YLD124.LOD1	0.306486
	11563	C	-8.057009	-15.403828	9.073938	C	2	YLD124.LOD1	0.28632
	11564	O	-9.175630	-16.152800	9.024970	O	2	YLD124.LOD1	-0.606883
	11565	O	-9.852690	-13.001100	8.902330	O	2	YLD124.LOD1	-0.600198
	11566	C	-10.330256	-12.724094	6.124189	C	2	YLD124.LOD1	0.267162
	11567	C	-10.936771	-18.397593	8.178706	C	2	YLD124.LOD1	0.369124
	11568	C	-11.031494	-19.939765	8.176130	C	2	YLD124.LOD1	-0.324271
	11569	H	-11.071033	-20.353777	9.191428	H	2	YLD124.LOD1	0.053925
	11570	H	-11.945865	-20.263655	7.658512	H	2	YLD124.LOD1	0.070181
	11571	H	-10.184619	-20.405034	7.657332	H	2	YLD124.LOD1	0.052098
	11572	C	-10.789981	-11.755771	5.011784	C	2	YLD124.LOD1	-0.316887
	11573	H	-10.775836	-12.263970	4.036995	H	2	YLD124.LOD1	0.07213
	11574	H	-11.813436	-11.395089	5.173667	H	2	YLD124.LOD1	0.059956
	11575	H	-10.134909	-10.879583	4.929124	H	2	YLD124.LOD1	0.057948
	11576	C	-10.921284	-17.890493	6.720391	C	2	YLD124.LOD1	-0.260833
	11577	H	-10.844772	-16.797889	6.671088	H	2	YLD124.LOD1	0.041714
	11578	H	-10.082274	-18.307950	6.151156	H	2	YLD124.LOD1	0.041636
	11579	H	-11.845674	-18.183229	6.201659	H	2	YLD124.LOD1	0.048242
	11580	C	-12.180651	-17.825341	8.892576	C	2	YLD124.LOD1	-0.256632
	11581	H	-13.098887	-18.164066	8.391079	H	2	YLD124.LOD1	0.046696
	11582	H	-12.245355	-18.149213	9.938642	H	2	YLD124.LOD1	0.030906
	11583	H	-12.192851	-16.728780	8.878706	H	2	YLD124.LOD1	0.051975
	11584	C	-8.897997	-13.209705	5.811856	C	2	YLD124.LOD1	-0.203727
	11585	H	-8.188850	-12.375558	5.742936	H	2	YLD124.LOD1	0.027457
	11586	H	-8.529629	-13.901184	6.577758	H	2	YLD124.LOD1	0.031775
	11587	H	-8.876062	-13.736313	4.846905	H	2	YLD124.LOD1	0.046776
	11588	C	-11.277267	-13.943497	6.156393	C	2	YLD124.LOD1	-0.249027
	11589	H	-12.317918	-13.648945	6.340195	H	2	YLD124.LOD1	0.037596
	11590	H	-11.253868	-14.470089	5.191422	H	2	YLD124.LOD1	0.055765
	11591	H	-10.988281	-14.658975	6.934206	H	2	YLD124.LOD1	0.04836
	11592	C	-12.046807	-11.248493	8.267859	C	2	YLD124.LOD1	-0.409962
	11593	H	-12.770048	-12.071640	8.257232	H	2	YLD124.LOD1	0.090944
	11594	H	-12.063151	-10.804315	9.270688	H	2	YLD124.LOD1	0.090896
	11595	H	-12.405213	-10.481121	7.570916	H	2	YLD124.LOD1	0.069902
	11596	C	-9.216757	-10.390433	7.866244	C	2	YLD124.LOD1	-0.458602
	11597	H	-9.207746	-9.919342	8.856802	H	2	YLD124.LOD1	0.097974
	11598	H	-8.189034	-10.688672	7.630617	H	2	YLD124.LOD1	0.103309
	11599	H	-9.513332	-9.618527	7.145651	H	2	YLD124.LOD1	0.085827
	11600	C	-7.831801	-18.411098	8.151378	C	2	YLD124.LOD1	-0.493974
	11601	H	-7.776033	-17.974427	7.148176	H	2	YLD124.LOD1	0.11158
	11602	H	-6.923903	-18.116335	8.690147	H	2	YLD124.LOD1	0.113577
	11603	H	-7.816260	-19.501926	8.044377	H	2	YLD124.LOD1	0.09477
	11604	C	-9.272120	-18.430654	10.782467	C	2	YLD124.LOD1	-0.483575
	11605	H	-8.357005	-18.093648	11.284497	H	2	YLD124.LOD1	0.116965
	11606	H	-10.124751	-18.083751	11.377170	H	2	YLD124.LOD1	0.100121
	11607	H	-9.275573	-19.526686	10.816554	H	2	YLD124.LOD1	0.088084
	11608	Si	-9.311960	-17.833900	9.048760	Si	2	YLD124.LOD1	0.763339
	11609	Si	-10.365100	-11.817900	7.813950	Si	2	YLD124.LOD1	0.748472
	11610	H	-8.186836	-14.504564	8.454027	H	2	YLD124.LOD1	-0.009815
	11611	H	-9.876539	-14.576083	11.602491	H	2	YLD124.LOD1	0.057511
	11612	H	-10.952027	-14.460672	9.728651	H	2	YLD124.LOD1	-0.045737
	11613	H	-11.333784	-12.804514	10.236365	H	2	YLD124.LOD1	-0.011652
	11614	H	-9.831960	-12.834588	11.786936	H	2	YLD124.LOD1	0.023801
	11615	H	-6.642758	-14.876983	10.490305	H	2	YLD124.LOD1	-0.001966
	11616	H	-8.100361	-15.672452	11.046182	H	2	YLD124.LOD1	0.031172
	11617	H	-7.214283	-15.971480	8.655685	H	2	YLD124.LOD1	-0.066029
	11618	C	-3.097805	-4.819903	9.350688	C	2	YLD124.LOD1	-0.185058
	11619	H	-4.150327	-4.697070	9.068383	H	2	YLD124.LOD1	0.04722
	11620	H	-2.557086	-3.926179	9.016982	H	2	YLD124.LOD1	0.027573
	11621	H	-2.700100	-5.677199	8.798737	H	2	YLD124.LOD1	0.00699
	11622	C	-3.565499	-3.772165	11.579578	C	2	YLD124.LOD1	-0.347891
	11623	H	-4.629329	-3.663235	11.335915	H	2	YLD124.LOD1	0.075067
	11624	H	-3.476953	-3.850047	12.670103	H	2	YLD124.LOD1	0.071859
	11625	H	-3.057431	-2.852171	11.266198	H	2	YLD124.LOD1	0.077505
	11626	C	27.255323	-1.979417	9.693939	C	3	YLD124.LOD1	-0.158041
	11627	C	27.356141	-3.175599	9.047367	C	3	YLD124.LOD1	-0.174247
	11628	H	26.671998	-3.977938	9.319212	H	3	YLD124.LOD1	0.11023
	11629	H	27.953165	-1.188224	9.424879	H	3	YLD124.LOD1	0.116594
	11630	N	23.609270	-0.393319	13.787548	N	3	YLD124.LOD1	-0.477879
	11631	C	24.478939	-0.782296	12.782601	C	3	YLD124.LOD1	0.383639
	11632	C	24.425864	-2.084317	12.215323	C	3	YLD124.LOD1	-0.278193
	11633	C	25.313148	-2.480306	11.231928	C	3	YLD124.LOD1	-0.102205
	11634	C	26.311194	-1.616969	10.730024	C	3	YLD124.LOD1	0.126725
	11635	C	26.353384	-0.323035	11.288855	C	3	YLD124.LOD1	-0.148338
	11636	C	25.473309	0.091374	12.274497	C	3	YLD124.LOD1	-0.248652
	11637	H	23.680204	-2.796177	12.546578	H	3	YLD124.LOD1	0.176041
	11638	H	25.223633	-3.489357	10.840473	H	3	YLD124.LOD1	0.098595
	11639	H	27.101845	0.380689	10.930828	H	3	YLD124.LOD1	0.105176
	11640	H	25.559404	1.104225	12.647773	H	3	YLD124.LOD1	0.157607
	11641	C	28.307654	-3.509959	8.023021	C	3	YLD124.LOD1	0.13089
	11642	C	28.306174	-4.779789	7.491529	C	3	YLD124.LOD1	-0.298955
	11643	C	29.322799	-2.497490	7.535390	C	3	YLD124.LOD1	0.000678
	11644	H	27.561284	-5.489652	7.848080	H	3	YLD124.LOD1	0.128536
	11645	C	29.878089	-2.795018	6.122697	C	3	YLD124.LOD1	0.312314
	11646	H	28.884968	-1.492233	7.541047	H	3	YLD124.LOD1	0.009572
	11647	C	30.308302	-4.279385	6.061385	C	3	YLD124.LOD1	0.132423
	11648	H	31.171855	-4.422709	6.729337	H	3	YLD124.LOD1	-0.011706
	11649	C	29.217561	-5.236180	6.493232	C	3	YLD124.LOD1	0.094029
	11650	C	28.992030	-6.517541	6.094733	C	3	YLD124.LOD1	-0.194272
	11651	H	28.181619	-7.119377	6.505694	H	3	YLD124.LOD1	0.118653
	11652	C	29.802874	-7.131811	5.113856	C	3	YLD124.LOD1	0.029031
	11653	C	29.588072	-8.416127	4.656856	C	3	YLD124.LOD1	-0.298661
	11654	H	30.623811	-6.560313	4.696827	H	3	YLD124.LOD1	0.063317
	11655	C	30.319195	-9.090900	3.655281	C	3	YLD124.LOD1	0.24754
	11656	C	30.025467	-10.352089	3.148940	C	3	YLD124.LOD1	-0.281071
	11657	C	31.557208	-8.591837	2.904855	C	3	YLD124.LOD1	-0.098074
	11658	C	30.958896	-10.673178	2.102810	C	3	YLD124.LOD1	0.526995
	11659	C	28.944448	-11.147122	3.606976	C	3	YLD124.LOD1	0.389724
	11660	O	31.811240	-9.634758	1.924344	O	3	YLD124.LOD1	-0.351072
	11661	C	32.930612	-8.583554	3.778964	C	3	YLD124.LOD1	0.617997
	11662	C	31.467784	-7.238274	2.127022	C	3	YLD124.LOD1	0.253109
	11663	C	31.094512	-11.781182	1.295965	C	3	YLD124.LOD1	-0.451385
	11664	N	28.031693	-11.723409	4.044366	N	3	YLD124.LOD1	-0.428829
	11665	F	33.018987	-9.779135	4.381087	F	3	YLD124.LOD1	-0.200469
	11666	F	34.062239	-8.389029	3.083394	F	3	YLD124.LOD1	-0.158364
	11667	F	32.872920	-7.639085	4.744225	F	3	YLD124.LOD1	-0.193377
	11668	C	30.381149	-6.446700	2.527893	C	3	YLD124.LOD1	-0.158716
	11669	C	32.270603	-6.799488	1.066533	C	3	YLD124.LOD1	-0.162688
	11670	C	30.235082	-12.912506	1.402076	C	3	YLD124.LOD1	0.447489
	11671	C	32.124800	-11.823078	0.309904	C	3	YLD124.LOD1	0.491336
	11672	H	29.744823	-6.777476	3.343301	H	3	YLD124.LOD1	0.085247
	11673	C	30.105687	-5.240464	1.890419	C	3	YLD124.LOD1	-0.074329
	11674	C	31.996929	-5.583655	0.435146	C	3	YLD124.LOD1	-0.055824
	11675	H	33.106220	-7.391590	0.716726	H	3	YLD124.LOD1	0.099228
	11676	N	29.555668	-13.857066	1.454483	N	3	YLD124.LOD1	-0.454587
	11677	N	32.959632	-11.869824	-0.500588	N	3	YLD124.LOD1	-0.481156
	11678	H	29.257480	-4.643984	2.213718	H	3	YLD124.LOD1	0.111202
	11679	C	30.917549	-4.801681	0.842177	C	3	YLD124.LOD1	-0.106678
	11680	H	32.628476	-5.258251	-0.386780	H	3	YLD124.LOD1	0.095951
	11681	H	30.705404	-3.859882	0.343828	H	3	YLD124.LOD1	0.103827
	11682	H	28.753889	-8.975379	5.077019	H	3	YLD124.LOD1	0.159396
	11683	H	30.660283	-4.511086	5.050851	H	3	YLD124.LOD1	-0.052081
	11684	H	30.157953	-2.466497	8.252352	H	3	YLD124.LOD1	-0.003289
	11685	C	22.542293	-1.204357	14.254283	C	3	YLD124.LOD1	0.198954
	11686	C	23.613300	0.928339	14.327961	C	3	YLD124.LOD1	0.115128
	11687	C	22.957714	1.983268	13.623839	C	3	YLD124.LOD1	0.306486
	11688	C	21.241351	-0.988202	13.716388	C	3	YLD124.LOD1	0.28632
	11689	O	21.304500	-0.485448	12.468300	O	3	YLD124.LOD1	-0.606883
	11690	O	23.488200	2.213030	12.407000	O	3	YLD124.LOD1	-0.600198
	11691	C	22.774279	4.831450	11.596364	C	3	YLD124.LOD1	0.267162
	11692	C	21.501477	-0.219695	9.510651	C	3	YLD124.LOD1	0.369124
	11693	C	20.969375	-0.826409	8.193062	C	3	YLD124.LOD1	-0.324271
	11694	H	19.885328	-0.695902	8.085316	H	3	YLD124.LOD1	0.053925
	11695	H	21.441987	-0.335383	7.330253	H	3	YLD124.LOD1	0.070181
	11696	H	21.187281	-1.898362	8.113960	H	3	YLD124.LOD1	0.052098
	11697	C	23.314316	6.195016	11.111092	C	3	YLD124.LOD1	-0.316887
	11698	H	22.482927	6.895293	10.946515	H	3	YLD124.LOD1	0.07213
	11699	H	23.987231	6.658268	11.843443	H	3	YLD124.LOD1	0.059956
	11700	H	23.858548	6.110582	10.162230	H	3	YLD124.LOD1	0.057948
	11701	C	23.032389	-0.410963	9.572271	C	3	YLD124.LOD1	-0.260833
	11702	H	23.455723	-0.003282	10.497826	H	3	YLD124.LOD1	0.041714
	11703	H	23.314933	-1.468899	9.515909	H	3	YLD124.LOD1	0.041636
	11704	H	23.518227	0.102157	8.729689	H	3	YLD124.LOD1	0.048242
	11705	C	21.186776	1.291966	9.523428	C	3	YLD124.LOD1	-0.256632
	11706	H	21.639632	1.784141	8.650458	H	3	YLD124.LOD1	0.046696
	11707	H	20.109004	1.492555	9.484632	H	3	YLD124.LOD1	0.030906
	11708	H	21.588993	1.786759	10.415722	H	3	YLD124.LOD1	0.051975
	11709	C	21.815534	4.258666	10.529844	C	3	YLD124.LOD1	-0.203727
	11710	H	22.312915	4.126399	9.561051	H	3	YLD124.LOD1	0.027457
	11711	H	21.407170	3.288184	10.832906	H	3	YLD124.LOD1	0.031775
	11712	H	20.969703	4.942937	10.370886	H	3	YLD124.LOD1	0.046776
	11713	C	21.994430	5.036109	12.913467	C	3	YLD124.LOD1	-0.249027
	11714	H	22.623168	5.476166	13.697392	H	3	YLD124.LOD1	0.037596
	11715	H	21.148182	5.719651	12.753309	H	3	YLD124.LOD1	0.055765
	11716	H	21.592619	4.091319	13.296005	H	3	YLD124.LOD1	0.04836
	11717	C	25.399847	4.227776	13.165266	C	3	YLD124.LOD1	-0.409962
	11718	H	24.884823	4.435863	14.109836	H	3	YLD124.LOD1	0.090944
	11719	H	26.186999	3.491969	13.370708	H	3	YLD124.LOD1	0.090896
	11720	H	25.898749	5.151397	12.847358	H	3	YLD124.LOD1	0.069902
	11721	C	25.177359	3.293131	10.339704	C	3	YLD124.LOD1	-0.458602
	11722	H	25.975891	2.560168	10.508001	H	3	YLD124.LOD1	0.097974
	11723	H	24.528731	2.902137	9.547817	H	3	YLD124.LOD1	0.103309
	11724	H	25.653141	4.205787	9.960572	H	3	YLD124.LOD1	0.085827
	11725	C	21.159357	-2.877148	11.079937	C	3	YLD124.LOD1	-0.493974
	11726	H	22.238299	-3.008033	11.217624	H	3	YLD124.LOD1	0.11158
	11727	H	20.657574	-3.369774	11.920752	H	3	YLD124.LOD1	0.113577
	11728	H	20.870942	-3.405708	10.163947	H	3	YLD124.LOD1	0.09477
	11729	C	18.878917	-0.930789	10.983198	C	3	YLD124.LOD1	-0.483575
	11730	H	18.425331	-1.420928	11.853293	H	3	YLD124.LOD1	0.116965
	11731	H	18.549369	0.114384	10.980916	H	3	YLD124.LOD1	0.100121
	11732	H	18.459946	-1.406417	10.088378	H	3	YLD124.LOD1	0.088084
	11733	Si	20.703700	-1.111280	11.021700	Si	3	YLD124.LOD1	0.763339
	11734	Si	24.240500	3.628080	11.878900	Si	3	YLD124.LOD1	0.748472
	11735	H	20.656390	-1.919656	13.710560	H	3	YLD124.LOD1	-0.009815
	11736	H	23.237261	0.877172	15.353708	H	3	YLD124.LOD1	0.057511
	11737	H	21.910831	1.664553	13.517247	H	3	YLD124.LOD1	-0.045737
	11738	H	22.961287	2.916510	14.206823	H	3	YLD124.LOD1	-0.011652
	11739	H	24.657251	1.251330	14.398487	H	3	YLD124.LOD1	0.023801
	11740	H	22.806050	-2.243075	14.028783	H	3	YLD124.LOD1	-0.001966
	11741	H	22.509671	-1.126133	15.344449	H	3	YLD124.LOD1	0.031172
	11742	H	20.720974	-0.278381	14.374197	H	3	YLD124.LOD1	-0.066029
	11743	C	28.769543	-2.512643	5.114579	C	3	YLD124.LOD1	-0.185058
	11744	H	28.481739	-1.454630	5.133627	H	3	YLD124.LOD1	0.04722
	11745	H	29.154570	-2.734973	4.112181	H	3	YLD124.LOD1	0.027573
	11746	H	27.864622	-3.109415	5.265427	H	3	YLD124.LOD1	0.00699
	11747	C	31.064905	-1.910623	5.922868	C	3	YLD124.LOD1	-0.347891
	11748	H	30.796241	-0.848760	5.979773	H	3	YLD124.LOD1	0.075067
	11749	H	31.861105	-2.095316	6.654376	H	3	YLD124.LOD1	0.071859
	11750	H	31.477358	-2.095440	4.923642	H	3	YLD124.LOD1	0.077505
	11751	C	17.920554	17.038045	21.201948	C	1	YLD124_chi.LOD1	-0.150166
	11752	C	16.567188	16.911550	21.094898	C	1	YLD124_chi.LOD1	-0.190723
	11753	H	16.052399	17.433794	20.289931	H	1	YLD124_chi.LOD1	0.123134
	11754	H	18.421193	16.526460	22.022309	H	1	YLD124_chi.LOD1	0.111619
	11755	N	21.523402	20.101960	18.010338	N	1	YLD124_chi.LOD1	-0.506176
	11756	C	20.646322	19.333767	18.757581	C	1	YLD124_chi.LOD1	0.404469
	11757	C	19.262926	19.262102	18.440106	C	1	YLD124_chi.LOD1	-0.281203
	11758	C	18.381308	18.531025	19.214483	C	1	YLD124_chi.LOD1	-0.112562
	11759	C	18.803629	17.807103	20.350672	C	1	YLD124_chi.LOD1	0.131862
	11760	C	20.181459	17.859752	20.645727	C	1	YLD124_chi.LOD1	-0.140167
	11761	C	21.078903	18.588453	19.883459	C	1	YLD124_chi.LOD1	-0.26473
	11762	H	18.871770	19.783705	17.575572	H	1	YLD124_chi.LOD1	0.177954
	11763	H	17.335013	18.519336	18.923549	H	1	YLD124_chi.LOD1	0.098859
	11764	H	20.556849	17.308864	21.505499	H	1	YLD124_chi.LOD1	0.103807
	11765	H	22.123707	18.576043	20.167765	H	1	YLD124_chi.LOD1	0.161189
	11766	C	15.714794	16.166849	21.981286	C	1	YLD124_chi.LOD1	0.100982
	11767	C	14.352739	16.188534	21.783723	C	1	YLD124_chi.LOD1	-0.303623
	11768	C	16.288473	15.391266	23.148534	C	1	YLD124_chi.LOD1	0.096207
	11769	H	13.961394	16.742732	20.931905	H	1	YLD124_chi.LOD1	0.124941
	11770	C	15.363284	14.268415	23.673085	C	1	YLD124_chi.LOD1	0.409462
	11771	H	17.255444	14.955019	22.870687	H	1	YLD124_chi.LOD1	-0.020765
	11772	C	13.941887	14.846664	23.866429	C	1	YLD124_chi.LOD1	-0.014279
	11773	H	13.968956	15.579313	24.687916	H	1	YLD124_chi.LOD1	-0.02177
	11774	C	13.405987	15.542302	22.633228	C	1	YLD124_chi.LOD1	0.179445
	11775	C	12.117071	15.703252	22.230912	C	1	YLD124_chi.LOD1	-0.27725
	11776	H	11.854352	16.250252	21.325582	H	1	YLD124_chi.LOD1	0.132087
	11777	C	11.045764	15.161531	22.976646	C	1	YLD124_chi.LOD1	0.141075
	11778	C	9.724503	15.305011	22.604854	C	1	YLD124_chi.LOD1	-0.327608
	11779	H	11.275859	14.623751	23.889059	H	1	YLD124_chi.LOD1	-0.027316
	11780	C	8.592374	14.814205	23.290783	C	1	YLD124_chi.LOD1	0.260653
	11781	C	7.268519	15.036852	22.929012	C	1	YLD124_chi.LOD1	-0.287606
	11782	C	8.565466	13.955449	24.558136	C	1	YLD124_chi.LOD1	-0.056548
	11783	C	6.401113	14.412757	23.891819	C	1	YLD124_chi.LOD1	0.509074
	11784	C	6.884449	15.788540	21.789687	C	1	YLD124_chi.LOD1	0.396907
	11785	O	7.147583	13.824628	24.857165	O	1	YLD124_chi.LOD1	-0.366332
	11786	C	9.260518	14.499319	25.851225	C	1	YLD124_chi.LOD1	0.253806
	11787	C	9.027177	12.401681	24.347157	C	1	YLD124_chi.LOD1	0.598114
	11788	C	5.028752	14.345413	23.988985	C	1	YLD124_chi.LOD1	-0.43234
	11789	N	6.667593	16.423460	20.837647	N	1	YLD124_chi.LOD1	-0.430249
	11790	C	4.164915	14.946491	23.028666	C	1	YLD124_chi.LOD1	0.437474
	11791	C	4.424752	13.654844	25.081606	C	1	YLD124_chi.LOD1	0.49223
	11792	N	3.422648	15.423095	22.268109	N	1	YLD124_chi.LOD1	-0.451871
	11793	N	3.918301	13.096248	25.969025	N	1	YLD124_chi.LOD1	-0.482758
	11794	H	9.507529	15.869245	21.699476	H	1	YLD124_chi.LOD1	0.157364
	11795	H	13.268115	14.046837	24.190900	H	1	YLD124_chi.LOD1	0.040059
	11796	H	16.500795	16.097274	23.966559	H	1	YLD124_chi.LOD1	-0.024244
	11797	C	21.145669	20.807417	16.836553	C	1	YLD124_chi.LOD1	0.240322
	11798	C	22.928974	20.139466	18.271569	C	1	YLD124_chi.LOD1	0.113854
	11799	C	23.816295	19.157463	17.733386	C	1	YLD124_chi.LOD1	0.29958
	11800	C	21.369338	20.186201	15.576459	C	1	YLD124_chi.LOD1	0.285774
	11801	O	21.453400	18.846600	15.697300	O	1	YLD124_chi.LOD1	-0.61175
	11802	O	23.969100	18.055900	18.494200	O	1	YLD124_chi.LOD1	-0.599726
	11803	C	24.663208	16.250123	20.594625	C	1	YLD124_chi.LOD1	0.275329
	11804	C	21.283396	15.886437	15.415748	C	1	YLD124_chi.LOD1	0.358728
	11805	C	20.101756	15.125333	16.056733	C	1	YLD124_chi.LOD1	-0.337707
	11806	H	19.292480	14.939594	15.339611	H	1	YLD124_chi.LOD1	0.059176
	11807	H	20.435800	14.146272	16.429211	H	1	YLD124_chi.LOD1	0.075606
	11808	H	19.675510	15.666928	16.910166	H	1	YLD124_chi.LOD1	0.056098
	11809	C	24.339656	15.074027	19.646856	C	1	YLD124_chi.LOD1	-0.311529
	11810	H	24.000149	14.202618	20.224904	H	1	YLD124_chi.LOD1	0.071087
	11811	H	23.540589	15.321537	18.936873	H	1	YLD124_chi.LOD1	0.058721
	11812	H	25.215541	14.755745	19.067890	H	1	YLD124_chi.LOD1	0.056179
	11813	C	22.400807	16.064447	16.466636	C	1	YLD124_chi.LOD1	-0.279876
	11814	H	23.255221	16.618858	16.060586	H	1	YLD124_chi.LOD1	0.048405
	11815	H	22.047271	16.601698	17.354715	H	1	YLD124_chi.LOD1	0.047411
	11816	H	22.770192	15.084898	16.803151	H	1	YLD124_chi.LOD1	0.054899
	11817	C	21.835484	15.050445	14.240590	C	1	YLD124_chi.LOD1	-0.273001
	11818	H	22.152694	14.058342	14.593394	H	1	YLD124_chi.LOD1	0.0526
	11819	H	21.086088	14.889656	13.455611	H	1	YLD124_chi.LOD1	0.034813
	11820	H	22.711027	15.522059	13.778260	H	1	YLD124_chi.LOD1	0.061699
	11821	C	25.774317	15.818965	21.576486	C	1	YLD124_chi.LOD1	-0.202774
	11822	H	26.691614	15.519914	21.054244	H	1	YLD124_chi.LOD1	0.027959
	11823	H	26.031648	16.624524	22.273176	H	1	YLD124_chi.LOD1	0.030756
	11824	H	25.442684	14.955952	22.171752	H	1	YLD124_chi.LOD1	0.045471
	11825	C	23.397209	16.613560	21.400752	C	1	YLD124_chi.LOD1	-0.266625
	11826	H	22.561538	16.893159	20.747461	H	1	YLD124_chi.LOD1	0.041283
	11827	H	23.067251	15.753183	22.000660	H	1	YLD124_chi.LOD1	0.059445
	11828	H	23.581442	17.447395	22.087185	H	1	YLD124_chi.LOD1	0.054675
	11829	C	26.772259	17.417798	18.620032	C	1	YLD124_chi.LOD1	-0.410828
	11830	H	27.463837	16.782942	19.185204	H	1	YLD124_chi.LOD1	0.093855
	11831	H	26.552635	16.908517	17.673582	H	1	YLD124_chi.LOD1	0.090546
	11832	H	27.300666	18.345807	18.370061	H	1	YLD124_chi.LOD1	0.070213
	11833	C	25.505393	19.237827	20.617681	C	1	YLD124_chi.LOD1	-0.460074
	11834	H	24.573339	19.795540	20.770828	H	1	YLD124_chi.LOD1	0.099819
	11835	H	25.894819	18.965869	21.605053	H	1	YLD124_chi.LOD1	0.10243
	11836	H	26.220356	19.929657	20.156263	H	1	YLD124_chi.LOD1	0.086844
	11837	C	18.919577	17.862510	15.140910	C	1	YLD124_chi.LOD1	-0.477029
	11838	H	18.510948	17.052040	15.754372	H	1	YLD124_chi.LOD1	0.107463
	11839	H	18.754173	18.801140	15.682339	H	1	YLD124_chi.LOD1	0.106999
	11840	H	18.337588	17.906599	14.212813	H	1	YLD124_chi.LOD1	0.090486
	11841	C	21.045098	17.848212	13.030116	C	1	YLD124_chi.LOD1	-0.470103
	11842	H	20.945537	16.897779	12.491646	H	1	YLD124_chi.LOD1	0.112461
	11843	H	20.380601	18.575086	12.548971	H	1	YLD124_chi.LOD1	0.098066
	11844	H	22.073223	18.198642	12.879747	H	1	YLD124_chi.LOD1	0.083138
	11845	Si	20.700100	17.621600	14.815900	Si	1	YLD124_chi.LOD1	0.770043
	11846	Si	25.239700	17.761500	19.564300	Si	1	YLD124_chi.LOD1	0.73989
	11847	H	20.569535	20.445520	14.867606	H	1	YLD124_chi.LOD1	-0.017464
	11848	H	23.295463	21.136442	18.010932	H	1	YLD124_chi.LOD1	0.058354
	11849	H	23.368077	18.877425	16.769371	H	1	YLD124_chi.LOD1	-0.04034
	11850	H	24.802140	19.599098	17.523901	H	1	YLD124_chi.LOD1	-0.007901
	11851	H	23.062501	20.035911	19.353496	H	1	YLD124_chi.LOD1	0.028132
	11852	H	20.071315	21.003117	16.913753	H	1	YLD124_chi.LOD1	-0.011538
	11853	H	21.637058	21.784385	16.854610	H	1	YLD124_chi.LOD1	0.020652
	11854	H	22.311173	20.573483	15.163552	H	1	YLD124_chi.LOD1	-0.064856
	11855	C	15.356567	13.151412	22.642469	C	1	YLD124_chi.LOD1	-0.299384
	11856	H	16.357594	12.719806	22.523339	H	1	YLD124_chi.LOD1	0.066854
	11857	H	14.693543	12.356924	23.005303	H	1	YLD124_chi.LOD1	0.072315
	11858	H	15.002945	13.456400	21.652643	H	1	YLD124_chi.LOD1	0.027971
	11859	C	15.918304	13.826752	24.990017	C	1	YLD124_chi.LOD1	-0.427943
	11860	H	16.934909	13.427622	24.889708	H	1	YLD124_chi.LOD1	0.089807
	11861	H	15.945263	14.631595	25.734769	H	1	YLD124_chi.LOD1	0.091303
	11862	H	15.284551	13.024086	25.385900	H	1	YLD124_chi.LOD1	0.089757
	11863	C	9.008222	15.857049	26.099254	C	1	YLD124_chi.LOD1	-0.158763
	11864	C	10.079893	13.790431	26.739032	C	1	YLD124_chi.LOD1	-0.147279
	11865	C	9.565838	16.494702	27.203804	C	1	YLD124_chi.LOD1	-0.065518
	11866	H	8.368842	16.418946	25.425096	H	1	YLD124_chi.LOD1	0.080042
	11867	C	10.644905	14.435622	27.841315	C	1	YLD124_chi.LOD1	-0.090746
	11868	H	10.282947	12.737793	26.591432	H	1	YLD124_chi.LOD1	0.09871
	11869	C	10.391100	15.785160	28.078622	C	1	YLD124_chi.LOD1	-0.09866
	11870	H	9.355087	17.545658	27.379584	H	1	YLD124_chi.LOD1	0.104949
	11871	H	10.828605	16.280901	28.940682	H	1	YLD124_chi.LOD1	0.102095
	11872	H	11.278244	13.871068	28.519822	H	1	YLD124_chi.LOD1	0.105434
	11873	F	8.246755	11.520237	24.990646	F	1	YLD124_chi.LOD1	-0.19867
	11874	F	10.295556	12.178459	24.727175	F	1	YLD124_chi.LOD1	-0.154403
	11875	F	8.942603	12.139227	23.023639	F	1	YLD124_chi.LOD1	-0.186491
	11876	C	19.135241	4.395672	15.888755	C	2	YLD124_chi.LOD1	-0.150166
	11877	C	18.293577	3.420400	16.335415	C	2	YLD124_chi.LOD1	-0.190723
	11878	H	18.666058	2.694012	17.056066	H	2	YLD124_chi.LOD1	0.123134
	11879	H	18.756650	5.104314	15.154011	H	2	YLD124_chi.LOD1	0.111619
	11880	N	24.622980	5.292120	17.167645	N	2	YLD124_chi.LOD1	-0.506176
	11881	C	23.281656	5.087942	16.890295	C	2	YLD124_chi.LOD1	0.404469
	11882	C	22.538945	4.055443	17.524359	C	2	YLD124_chi.LOD1	-0.281203
	11883	C	21.212060	3.824406	17.212302	C	2	YLD124_chi.LOD1	-0.112562
	11884	C	20.518568	4.604245	16.261373	C	2	YLD124_chi.LOD1	0.131862
	11885	C	21.252385	5.644375	15.654838	C	2	YLD124_chi.LOD1	-0.140167
	11886	C	22.582359	5.889206	15.952648	C	2	YLD124_chi.LOD1	-0.26473
	11887	H	23.004704	3.425968	18.272236	H	2	YLD124_chi.LOD1	0.177954
	11888	H	20.699719	3.016996	17.727189	H	2	YLD124_chi.LOD1	0.098859
	11889	H	20.757897	6.279924	14.923289	H	2	YLD124_chi.LOD1	0.103807
	11890	H	23.078736	6.710569	15.451081	H	2	YLD124_chi.LOD1	0.161189
	11891	C	16.933039	3.220391	15.916162	C	2	YLD124_chi.LOD1	0.100982
	11892	C	16.226918	2.145735	16.407285	C	2	YLD124_chi.LOD1	-0.303623
	11893	C	16.278921	4.150485	14.916082	C	2	YLD124_chi.LOD1	0.096207
	11894	H	16.711616	1.495657	17.134159	H	2	YLD124_chi.LOD1	0.124941
	11895	C	14.733003	4.131581	14.957326	C	2	YLD124_chi.LOD1	0.409462
	11896	H	16.626733	5.178158	15.075632	H	2	YLD124_chi.LOD1	-0.020765
	11897	C	14.254278	2.660977	14.940897	C	2	YLD124_chi.LOD1	-0.014279
	11898	H	14.503167	2.220964	13.962740	H	2	YLD124_chi.LOD1	-0.02177
	11899	C	14.896352	1.810584	16.016283	C	2	YLD124_chi.LOD1	0.179445
	11900	C	14.408514	0.706221	16.641966	C	2	YLD124_chi.LOD1	-0.27725
	11901	H	14.982426	0.161039	17.391134	H	2	YLD124_chi.LOD1	0.132087
	11902	C	13.119067	0.208778	16.346742	C	2	YLD124_chi.LOD1	0.141075
	11903	C	12.588635	-0.909949	16.956363	C	2	YLD124_chi.LOD1	-0.327608
	11904	H	12.530260	0.722740	15.595876	H	2	YLD124_chi.LOD1	-0.027316
	11905	C	11.322505	-1.486544	16.716452	C	2	YLD124_chi.LOD1	0.260653
	11906	C	10.844424	-2.656920	17.294986	C	2	YLD124_chi.LOD1	-0.287606
	11907	C	10.221495	-0.972683	15.784736	C	2	YLD124_chi.LOD1	-0.056548
	11908	C	9.534929	-2.944384	16.773956	C	2	YLD124_chi.LOD1	0.509074
	11909	C	11.581513	-3.424334	18.232207	C	2	YLD124_chi.LOD1	0.396907
	11910	O	9.191220	-1.996555	15.869250	O	2	YLD124_chi.LOD1	-0.366332
	11911	C	10.550804	-0.775018	14.267011	C	2	YLD124_chi.LOD1	0.253806
	11912	C	9.441128	0.362099	16.314520	C	2	YLD124_chi.LOD1	0.598114
	11913	C	8.650802	-3.972037	17.018085	C	2	YLD124_chi.LOD1	-0.43234
	11914	N	12.263032	-3.988738	18.989510	N	2	YLD124_chi.LOD1	-0.430249
	11915	C	8.933684	-5.019466	17.941444	C	2	YLD124_chi.LOD1	0.437474
	11916	C	7.399264	-4.012887	16.334341	C	2	YLD124_chi.LOD1	0.49223
	11917	N	9.124256	-5.894662	18.685938	N	2	YLD124_chi.LOD1	-0.451871
	11918	N	6.375170	-4.059874	15.782019	N	2	YLD124_chi.LOD1	-0.482758
	11919	H	13.201745	-1.430276	17.690191	H	2	YLD124_chi.LOD1	0.157364
	11920	H	13.162406	2.636146	15.019466	H	2	YLD124_chi.LOD1	0.040059
	11921	H	16.617684	3.871555	13.906067	H	2	YLD124_chi.LOD1	-0.024244
	11922	C	25.331564	4.552610	18.151550	C	2	YLD124_chi.LOD1	0.240322
	11923	C	25.377116	6.362417	16.592346	C	2	YLD124_chi.LOD1	0.113854
	11924	C	25.573499	7.603860	17.272997	C	2	YLD124_chi.LOD1	0.29958
	11925	C	25.331758	5.054882	19.481910	C	2	YLD124_chi.LOD1	0.285774
	11926	O	24.579300	6.168810	19.578500	O	2	YLD124_chi.LOD1	-0.61175
	11927	O	26.704100	7.683320	18.001600	O	2	YLD124_chi.LOD1	-0.599726
	11928	C	28.927796	7.743957	16.212680	C	2	YLD124_chi.LOD1	0.275329
	11929	C	23.434273	8.541040	20.929201	C	2	YLD124_chi.LOD1	0.358728
	11930	C	24.818521	9.112704	20.550423	C	2	YLD124_chi.LOD1	-0.337707
	11931	H	25.073025	8.917278	19.501268	H	2	YLD124_chi.LOD1	0.059176
	11932	H	24.831819	10.203291	20.689441	H	2	YLD124_chi.LOD1	0.075606
	11933	H	25.621214	8.698298	21.172766	H	2	YLD124_chi.LOD1	0.056098
	11934	C	28.846764	6.216328	16.427014	C	2	YLD124_chi.LOD1	-0.311529
	11935	H	29.352541	5.689990	15.604873	H	2	YLD124_chi.LOD1	0.071087
	11936	H	29.333161	5.902110	17.358963	H	2	YLD124_chi.LOD1	0.058721
	11937	H	27.810786	5.856026	16.451770	H	2	YLD124_chi.LOD1	0.056179
	11938	C	23.123556	8.898855	22.398923	C	2	YLD124_chi.LOD1	-0.279876
	11939	H	22.155637	8.495167	22.718988	H	2	YLD124_chi.LOD1	0.048405
	11940	H	23.887597	8.514770	23.085240	H	2	YLD124_chi.LOD1	0.047411
	11941	H	23.087352	9.990246	22.528376	H	2	YLD124_chi.LOD1	0.054899
	11942	C	22.363599	9.187772	20.023621	C	2	YLD124_chi.LOD1	-0.273001
	11943	H	22.380078	10.281801	20.134028	H	2	YLD124_chi.LOD1	0.0526
	11944	H	22.528410	8.967860	18.961492	H	2	YLD124_chi.LOD1	0.034813
	11945	H	21.351716	8.853911	20.283185	H	2	YLD124_chi.LOD1	0.061699
	11946	C	28.247153	8.104850	14.874399	C	2	YLD124_chi.LOD1	-0.202774
	11947	H	27.194186	7.797646	14.852312	H	2	YLD124_chi.LOD1	0.027959
	11948	H	28.287044	9.182304	14.679405	H	2	YLD124_chi.LOD1	0.030756
	11949	H	28.752204	7.595758	14.040815	H	2	YLD124_chi.LOD1	0.045471
	11950	C	30.411272	8.168182	16.149345	C	2	YLD124_chi.LOD1	-0.266625
	11951	H	30.953474	7.900796	17.064677	H	2	YLD124_chi.LOD1	0.041283
	11952	H	30.916552	7.663957	15.313008	H	2	YLD124_chi.LOD1	0.059445
	11953	H	30.516019	9.248446	15.999447	H	2	YLD124_chi.LOD1	0.054675
	11954	C	27.508314	10.324976	17.189124	C	2	YLD124_chi.LOD1	-0.410828
	11955	H	26.762846	10.300012	16.386381	H	2	YLD124_chi.LOD1	0.093855
	11956	H	27.062478	10.855602	18.039439	H	2	YLD124_chi.LOD1	0.090546
	11957	H	28.353419	10.930718	16.840162	H	2	YLD124_chi.LOD1	0.070213
	11958	C	29.114504	8.757837	19.153103	C	2	YLD124_chi.LOD1	-0.460074
	11959	H	28.749375	9.523665	19.848382	H	2	YLD124_chi.LOD1	0.099819
	11960	H	29.154598	7.807945	19.697727	H	2	YLD124_chi.LOD1	0.10243
	11961	H	30.141971	9.032246	18.885300	H	2	YLD124_chi.LOD1	0.086844
	11962	C	21.850052	6.026909	20.061308	C	2	YLD124_chi.LOD1	-0.477029
	11963	H	21.000389	6.421412	20.629301	H	2	YLD124_chi.LOD1	0.107463
	11964	H	21.730201	6.351305	19.021147	H	2	YLD124_chi.LOD1	0.106999
	11965	H	21.785504	4.932576	20.078219	H	2	YLD124_chi.LOD1	0.090486
	11966	C	23.803655	5.785452	22.322497	C	2	YLD124_chi.LOD1	-0.470103
	11967	H	23.701540	4.698166	22.219705	H	2	YLD124_chi.LOD1	0.112461
	11968	H	24.811910	5.991334	22.699905	H	2	YLD124_chi.LOD1	0.098066
	11969	H	23.095532	6.104782	23.096477	H	2	YLD124_chi.LOD1	0.083138
	11970	Si	23.438600	6.624590	20.734400	Si	2	YLD124_chi.LOD1	0.770043
	11971	Si	28.051800	8.640520	17.664300	Si	2	YLD124_chi.LOD1	0.73989
	11972	H	24.947343	4.286601	20.168476	H	2	YLD124_chi.LOD1	-0.017464
	11973	H	26.399339	6.007934	16.432314	H	2	YLD124_chi.LOD1	0.058354
	11974	H	25.530247	8.448609	16.570733	H	2	YLD124_chi.LOD1	-0.04034
	11975	H	24.700936	7.682263	17.938805	H	2	YLD124_chi.LOD1	-0.007901
	11976	H	24.960044	6.556982	15.598710	H	2	YLD124_chi.LOD1	0.028132
	11977	H	24.908166	3.543101	18.162579	H	2	YLD124_chi.LOD1	-0.011538
	11978	H	26.368112	4.446420	17.819063	H	2	YLD124_chi.LOD1	0.020652
	11979	H	26.361310	5.284031	19.790205	H	2	YLD124_chi.LOD1	-0.064856
	11980	C	14.292897	4.828807	16.234083	C	2	YLD124_chi.LOD1	-0.299384
	11981	H	14.606140	5.879713	16.236672	H	2	YLD124_chi.LOD1	0.066854
	11982	H	13.197199	4.808916	16.272940	H	2	YLD124_chi.LOD1	0.072315
	11983	H	14.668785	4.364617	17.151175	H	2	YLD124_chi.LOD1	0.027971
	11984	C	14.256087	4.837550	13.727855	C	2	YLD124_chi.LOD1	-0.427943
	11985	H	14.595148	5.880201	13.700163	H	2	YLD124_chi.LOD1	0.089807
	11986	H	14.585301	4.352410	12.800810	H	2	YLD124_chi.LOD1	0.091303
	11987	H	13.159472	4.845511	13.731508	H	2	YLD124_chi.LOD1	0.089757
	11988	C	11.299787	-1.822950	13.710716	C	2	YLD124_chi.LOD1	-0.158763
	11989	C	10.190085	0.305490	13.451852	C	2	YLD124_chi.LOD1	-0.147279
	11990	C	11.685799	-1.790661	12.373734	C	2	YLD124_chi.LOD1	-0.065518
	11991	H	11.580829	-2.671617	14.326997	H	2	YLD124_chi.LOD1	0.080042
	11992	C	10.586710	0.338826	12.113152	C	2	YLD124_chi.LOD1	-0.090746
	11993	H	9.597472	1.123639	13.839803	H	2	YLD124_chi.LOD1	0.09871
	11994	C	11.332766	-0.705123	11.569503	C	2	YLD124_chi.LOD1	-0.09866
	11995	H	12.262444	-2.613826	11.961783	H	2	YLD124_chi.LOD1	0.104949
	11996	H	11.633981	-0.676920	10.526051	H	2	YLD124_chi.LOD1	0.102095
	11997	H	10.298634	1.184438	11.494960	H	2	YLD124_chi.LOD1	0.105434
	11998	F	9.362198	0.250884	17.649242	F	2	YLD124_chi.LOD1	-0.19867
	11999	F	8.194139	0.522997	15.843181	F	2	YLD124_chi.LOD1	-0.154403
	12000	F	10.134809	1.488100	16.034053	F	2	YLD124_chi.LOD1	-0.186491
	12001	C	-28.276363	11.595778	4.058194	C	1	YLD124.LOD1	-0.158041
	12002	C	-27.951867	10.316228	4.399552	C	1	YLD124.LOD1	-0.174247
	12003	H	-27.081771	9.854315	3.935583	H	1	YLD124.LOD1	0.11023
	12004	H	-29.156295	12.043708	4.516931	H	1	YLD124.LOD1	0.116594
	12005	N	-25.653157	15.130717	0.426384	N	1	YLD124.LOD1	-0.477879
	12006	C	-26.273154	14.271325	1.317785	C	1	YLD124.LOD1	0.383639
	12007	C	-25.777244	12.960738	1.555093	C	1	YLD124.LOD1	-0.278193
	12008	C	-26.413665	12.094149	2.424080	C	1	YLD124.LOD1	-0.102205
	12009	C	-27.580329	12.461277	3.129394	C	1	YLD124.LOD1	0.126725
	12010	C	-28.062722	13.765958	2.898225	C	1	YLD124.LOD1	-0.148338
	12011	C	-27.438947	14.647747	2.031560	C	1	YLD124.LOD1	-0.248652
	12012	H	-24.881478	12.615024	1.054527	H	1	YLD124.LOD1	0.176041
	12013	H	-25.987590	11.104590	2.560704	H	1	YLD124.LOD1	0.098595
	12014	H	-28.956366	14.097275	3.422854	H	1	YLD124.LOD1	0.105176
	12015	H	-27.861374	15.637808	1.913457	H	1	YLD124.LOD1	0.157607
	12016	C	-28.664474	9.476916	5.323784	C	1	YLD124.LOD1	0.13089
	12017	C	-28.230391	8.187705	5.534645	C	1	YLD124.LOD1	-0.298955
	12018	C	-29.894033	9.979284	6.051252	C	1	YLD124.LOD1	0.000678
	12019	H	-27.338137	7.849269	5.010014	H	1	YLD124.LOD1	0.128536
	12020	C	-30.208652	9.212101	7.357014	C	1	YLD124.LOD1	0.312314
	12021	H	-29.785584	11.045599	6.282512	H	1	YLD124.LOD1	0.009572
	12022	C	-30.159078	7.694133	7.064609	C	1	YLD124.LOD1	0.132423
	12023	H	-30.991925	7.438750	6.391131	H	1	YLD124.LOD1	-0.011706
	12024	C	-28.869986	7.254473	6.403847	C	1	YLD124.LOD1	0.094029
	12025	C	-28.231232	6.055357	6.480421	C	1	YLD124.LOD1	-0.194272
	12026	H	-27.314425	5.849438	5.928222	H	1	YLD124.LOD1	0.118653
	12027	C	-28.728846	5.012344	7.293697	C	1	YLD124.LOD1	0.029031
	12028	C	-28.094409	3.794018	7.426470	C	1	YLD124.LOD1	-0.298661
	12029	H	-29.645870	5.185608	7.844611	H	1	YLD124.LOD1	0.063317
	12030	C	-28.496186	2.715823	8.244446	C	1	YLD124.LOD1	0.24754
	12031	C	-27.789692	1.532710	8.429817	C	1	YLD124.LOD1	-0.281071
	12032	C	-29.758096	2.615468	9.106067	C	1	YLD124.LOD1	-0.098074
	12033	C	-28.487326	0.706455	9.378177	C	1	YLD124.LOD1	0.526995
	12034	C	-26.561368	1.244942	7.782603	C	1	YLD124.LOD1	0.389724
	12035	O	-29.596945	1.353688	9.810025	O	1	YLD124.LOD1	-0.351072
	12036	C	-31.138537	2.384785	8.274409	C	1	YLD124.LOD1	0.617997
	12037	C	-30.019036	3.716545	10.185339	C	1	YLD124.LOD1	0.253109
	12038	C	-28.208942	-0.538834	9.896657	C	1	YLD124.LOD1	-0.451385
	12039	N	-25.557541	1.100893	7.209786	N	1	YLD124.LOD1	-0.428829
	12040	F	-30.909747	1.390137	7.403717	F	1	YLD124.LOD1	-0.200469
	12041	F	-32.211434	2.049744	9.008493	F	1	YLD124.LOD1	-0.158364
	12042	F	-31.454619	3.490265	7.563714	F	1	YLD124.LOD1	-0.193377
	12043	C	-29.139590	4.803954	10.074973	C	1	YLD124.LOD1	-0.158716
	12044	C	-30.942714	3.696631	11.238008	C	1	YLD124.LOD1	-0.162688
	12045	C	-27.058070	-1.285697	9.512647	C	1	YLD124.LOD1	0.447489
	12046	C	-29.088701	-1.124936	10.854819	C	1	YLD124.LOD1	0.491336
	12047	H	-28.412488	4.829774	9.268829	H	1	YLD124.LOD1	0.085247
	12048	C	-29.185317	5.852103	10.989605	C	1	YLD124.LOD1	-0.074329
	12049	C	-30.992248	4.754904	12.148722	C	1	YLD124.LOD1	-0.055824
	12050	H	-31.624539	2.866145	11.366902	H	1	YLD124.LOD1	0.099228
	12051	N	-26.130254	-1.929460	9.227569	N	1	YLD124.LOD1	-0.454587
	12052	N	-29.796672	-1.614225	11.639293	N	1	YLD124.LOD1	-0.481156
	12053	H	-28.493319	6.683184	10.888576	H	1	YLD124.LOD1	0.111202
	12054	C	-30.117310	5.833097	12.029552	C	1	YLD124.LOD1	-0.106678
	12055	H	-31.713670	4.723518	12.960427	H	1	YLD124.LOD1	0.095951
	12056	H	-30.155877	6.650658	12.744009	H	1	YLD124.LOD1	0.103827
	12057	H	-27.168822	3.636935	6.875313	H	1	YLD124.LOD1	0.159396
	12058	H	-30.335477	7.142269	7.993632	H	1	YLD124.LOD1	-0.052081
	12059	H	-30.757280	9.904551	5.371769	H	1	YLD124.LOD1	-0.003289
	12060	C	-24.433916	14.808359	-0.222985	C	1	YLD124.LOD1	0.198954
	12061	C	-26.086835	16.473017	0.200027	C	1	YLD124.LOD1	0.115128
	12062	C	-25.346634	17.578628	0.720267	C	1	YLD124.LOD1	0.306486
	12063	C	-23.219276	15.050269	0.479997	C	1	YLD124.LOD1	0.28632
	12064	O	-23.413200	15.026600	1.812860	O	1	YLD124.LOD1	-0.606883
	12065	O	-24.165700	17.773700	0.102049	O	1	YLD124.LOD1	-0.600198
	12066	C	-22.141794	19.579636	-0.713621	C	1	YLD124.LOD1	0.267162
	12067	C	-22.824222	15.652806	4.662020	C	1	YLD124.LOD1	0.369124
	12068	C	-21.878820	15.274542	5.824090	C	1	YLD124.LOD1	-0.324271
	12069	H	-20.832462	15.519603	5.602998	H	1	YLD124.LOD1	0.053925
	12070	H	-22.155291	15.826224	6.734100	H	1	YLD124.LOD1	0.070181
	12071	H	-21.928683	14.206084	6.066438	H	1	YLD124.LOD1	0.052098
	12072	C	-21.728341	20.614364	-1.783591	C	1	YLD124.LOD1	-0.316887
	12073	H	-20.734981	21.024031	-1.551020	H	1	YLD124.LOD1	0.07213
	12074	H	-21.669321	20.172391	-2.786054	H	1	YLD124.LOD1	0.059956
	12075	H	-22.424275	21.461172	-1.831022	H	1	YLD124.LOD1	0.057948
	12076	C	-24.276211	15.311563	5.061212	C	1	YLD124.LOD1	-0.260833
	12077	H	-24.985206	15.554329	4.260925	H	1	YLD124.LOD1	0.041714
	12078	H	-24.395706	14.247900	5.299072	H	1	YLD124.LOD1	0.041636
	12079	H	-24.573640	15.881188	5.953589	H	1	YLD124.LOD1	0.048242
	12080	C	-22.719771	17.173013	4.412263	C	1	YLD124.LOD1	-0.256632
	12081	H	-22.974770	17.729008	5.326175	H	1	YLD124.LOD1	0.046696
	12082	H	-21.707194	17.477743	4.120435	H	1	YLD124.LOD1	0.030906
	12083	H	-23.410587	17.508063	3.629127	H	1	YLD124.LOD1	0.051975
	12084	C	-22.173593	20.266930	0.668895	C	1	YLD124.LOD1	-0.203727
	12085	H	-22.875384	21.109809	0.690966	H	1	YLD124.LOD1	0.027457
	12086	H	-22.463386	19.567878	1.461226	H	1	YLD124.LOD1	0.031775
	12087	H	-21.179574	20.664192	0.919960	H	1	YLD124.LOD1	0.046776
	12088	C	-21.100166	18.439945	-0.683127	C	1	YLD124.LOD1	-0.249027
	12089	H	-21.012078	17.939681	-1.655482	H	1	YLD124.LOD1	0.037596
	12090	H	-20.106692	18.837973	-0.430938	H	1	YLD124.LOD1	0.055765
	12091	H	-21.354726	17.679905	0.063835	H	1	YLD124.LOD1	0.04836
	12092	C	-23.899643	18.010311	-2.754857	C	1	YLD124.LOD1	-0.409962
	12093	H	-23.141527	17.220532	-2.802523	H	1	YLD124.LOD1	0.090944
	12094	H	-24.875224	17.546874	-2.946418	H	1	YLD124.LOD1	0.090896
	12095	H	-23.707447	18.706812	-3.580078	H	1	YLD124.LOD1	0.069902
	12096	C	-25.173816	20.170211	-1.136627	C	1	YLD124.LOD1	-0.458602
	12097	H	-26.165719	19.742106	-1.326539	H	1	YLD124.LOD1	0.097974
	12098	H	-25.217494	20.697494	-0.177072	H	1	YLD124.LOD1	0.103309
	12099	H	-24.990475	20.916672	-1.919080	H	1	YLD124.LOD1	0.085827
	12100	C	-22.590454	12.859018	3.327284	C	1	YLD124.LOD1	-0.493974
	12101	H	-23.640103	12.610194	3.518410	H	1	YLD124.LOD1	0.11158
	12102	H	-22.279941	12.311353	2.430020	H	1	YLD124.LOD1	0.113577
	12103	H	-21.997344	12.482963	4.168948	H	1	YLD124.LOD1	0.09477
	12104	C	-20.637375	15.007985	2.575453	C	1	YLD124.LOD1	-0.483575
	12105	H	-20.381145	14.454440	1.663873	H	1	YLD124.LOD1	0.116965
	12106	H	-20.455378	16.071070	2.381236	H	1	YLD124.LOD1	0.100121
	12107	H	-19.932335	14.693761	3.354325	H	1	YLD124.LOD1	0.088084
	12108	Si	-22.364500	14.652600	3.079960	Si	1	YLD124.LOD1	0.763339
	12109	Si	-23.874500	18.877500	-1.140570	Si	1	YLD124.LOD1	0.748472
	12110	H	-22.451352	14.312365	0.205021	H	1	YLD124.LOD1	-0.009815
	12111	H	-26.090735	16.646973	-0.879743	H	1	YLD124.LOD1	0.057511
	12112	H	-25.935730	18.506645	0.694664	H	1	YLD124.LOD1	-0.045737
	12113	H	-25.169619	17.328652	1.777150	H	1	YLD124.LOD1	-0.011652
	12114	H	-27.130552	16.534605	0.525592	H	1	YLD124.LOD1	0.023801
	12115	H	-24.459318	13.737408	-0.450521	H	1	YLD124.LOD1	-0.001966
	12116	H	-24.412136	15.325889	-1.185967	H	1	YLD124.LOD1	0.031172
	12117	H	-22.846522	16.039074	0.178882	H	1	YLD124.LOD1	-0.066029
	12118	C	-29.156553	9.596749	8.391437	C	1	YLD124.LOD1	-0.185058
	12119	H	-29.207643	10.667214	8.623990	H	1	YLD124.LOD1	0.04722
	12120	H	-29.367856	9.044891	9.315169	H	1	YLD124.LOD1	0.027573
	12121	H	-28.129287	9.366997	8.091918	H	1	YLD124.LOD1	0.00699
	12122	C	-31.586744	9.606693	7.776198	C	1	YLD124.LOD1	-0.347891
	12123	H	-31.660416	10.683151	7.973135	H	1	YLD124.LOD1	0.075067
	12124	H	-32.348555	9.348770	7.030363	H	1	YLD124.LOD1	0.071859
	12125	H	-31.835767	9.081440	8.706158	H	1	YLD124.LOD1	0.077505
	12126	C	-25.803786	31.383650	25.735137	C	2	YLD124.LOD1	-0.158041
	12127	C	-24.958539	31.399242	24.665377	C	2	YLD124.LOD1	-0.174247
	12128	H	-23.885117	31.362619	24.844606	H	2	YLD124.LOD1	0.11023
	12129	H	-26.874746	31.434947	25.545994	H	2	YLD124.LOD1	0.116594
	12130	N	-24.567432	31.103313	31.299298	N	2	YLD124.LOD1	-0.477879
	12131	C	-24.857811	31.154667	29.946305	C	2	YLD124.LOD1	0.383639
	12132	C	-23.830581	31.150676	28.964132	C	2	YLD124.LOD1	-0.278193
	12133	C	-24.121150	31.230482	27.614930	C	2	YLD124.LOD1	-0.102205
	12134	C	-25.447047	31.310332	27.136415	C	2	YLD124.LOD1	0.126725
	12135	C	-26.463054	31.303840	28.114180	C	2	YLD124.LOD1	-0.148338
	12136	C	-26.191326	31.224682	29.469781	C	2	YLD124.LOD1	-0.248652
	12137	H	-22.790921	31.083027	29.259111	H	2	YLD124.LOD1	0.176041
	12138	H	-23.292040	31.226191	26.913509	H	2	YLD124.LOD1	0.098595
	12139	H	-27.501512	31.358260	27.794415	H	2	YLD124.LOD1	0.105176
	12140	H	-27.024575	31.213443	30.161289	H	2	YLD124.LOD1	0.157607
	12141	C	-25.340821	31.476575	23.281781	C	2	YLD124.LOD1	0.13089
	12142	C	-24.362311	31.521379	22.314587	C	2	YLD124.LOD1	-0.298955
	12143	C	-26.797978	31.530909	22.872955	C	2	YLD124.LOD1	0.000678
	12144	H	-23.320852	31.470341	22.628678	H	2	YLD124.LOD1	0.128536
	12145	C	-27.060402	31.069736	21.420018	C	2	YLD124.LOD1	0.312314
	12146	H	-27.403456	30.921575	23.554407	H	2	YLD124.LOD1	0.009572
	12147	C	-26.059813	31.786862	20.483675	C	2	YLD124.LOD1	0.132423
	12148	H	-26.295764	32.862351	20.474989	H	2	YLD124.LOD1	-0.011706
	12149	C	-24.617559	31.626674	20.914845	C	2	YLD124.LOD1	0.094029
	12150	C	-23.490273	31.609962	20.152928	C	2	YLD124.LOD1	-0.194272
	12151	H	-22.495854	31.516370	20.589086	H	2	YLD124.LOD1	0.118653
	12152	C	-23.557885	31.707493	18.744797	C	2	YLD124.LOD1	0.029031
	12153	C	-22.442817	31.660426	17.933091	C	2	YLD124.LOD1	-0.298661
	12154	H	-24.533508	31.813745	18.285091	H	2	YLD124.LOD1	0.063317
	12155	C	-22.420879	31.708779	16.522349	C	2	YLD124.LOD1	0.24754
	12156	C	-21.290819	31.568015	15.724600	C	2	YLD124.LOD1	-0.281071
	12157	C	-23.608195	31.902130	15.574839	C	2	YLD124.LOD1	-0.098074
	12158	C	-21.677918	31.614478	14.340124	C	2	YLD124.LOD1	0.526995
	12159	C	-19.984625	31.381192	16.243667	C	2	YLD124.LOD1	0.389724
	12160	O	-23.023101	31.753811	14.252234	O	2	YLD124.LOD1	-0.351072
	12161	C	-24.209321	33.414404	15.530107	C	2	YLD124.LOD1	0.617997
	12162	C	-24.808832	30.904234	15.663491	C	2	YLD124.LOD1	0.253109
	12163	C	-20.949192	31.520392	13.175148	C	2	YLD124.LOD1	-0.451385
	12164	N	-18.953221	31.227213	16.762355	N	2	YLD124.LOD1	-0.428829
	12165	F	-23.166844	34.246185	15.384649	F	2	YLD124.LOD1	-0.200469
	12166	F	-25.077855	33.666554	14.537983	F	2	YLD124.LOD1	-0.158364
	12167	F	-24.818711	33.717449	16.697963	F	2	YLD124.LOD1	-0.193377
	12168	C	-24.834482	30.183166	16.866597	C	2	YLD124.LOD1	-0.158716
	12169	C	-25.760015	30.611458	14.677986	C	2	YLD124.LOD1	-0.162688
	12170	C	-19.533844	31.357465	13.171188	C	2	YLD124.LOD1	0.447489
	12171	C	-21.611294	31.585383	11.913021	C	2	YLD124.LOD1	0.491336
	12172	H	-24.098562	30.393255	17.636986	H	2	YLD124.LOD1	0.085247
	12173	C	-25.792248	29.197204	17.085277	C	2	YLD124.LOD1	-0.074329
	12174	C	-26.725823	29.627756	14.904576	C	2	YLD124.LOD1	-0.055824
	12175	H	-25.760433	31.133252	13.729863	H	2	YLD124.LOD1	0.099228
	12176	N	-18.377901	31.223563	13.122097	N	2	YLD124.LOD1	-0.454587
	12177	N	-22.138874	31.634450	10.876065	N	2	YLD124.LOD1	-0.481156
	12178	H	-25.792825	28.647906	18.022313	H	2	YLD124.LOD1	0.111202
	12179	C	-26.746365	28.918703	16.104175	C	2	YLD124.LOD1	-0.106678
	12180	H	-27.455712	29.411768	14.129390	H	2	YLD124.LOD1	0.095951
	12181	H	-27.495809	28.150468	16.272972	H	2	YLD124.LOD1	0.103827
	12182	H	-21.469907	31.543375	18.407331	H	2	YLD124.LOD1	0.159396
	12183	H	-26.207816	31.431998	19.458530	H	2	YLD124.LOD1	-0.052081
	12184	H	-27.156760	32.564903	22.993827	H	2	YLD124.LOD1	-0.003289
	12185	C	-23.249136	30.935642	31.795849	C	2	YLD124.LOD1	0.198954
	12186	C	-25.574797	31.049431	32.310746	C	2	YLD124.LOD1	0.115128
	12187	C	-26.027757	29.797311	32.829774	C	2	YLD124.LOD1	0.306486
	12188	C	-22.765564	29.606569	31.958378	C	2	YLD124.LOD1	0.28632
	12189	O	-23.550400	28.724900	31.309100	O	2	YLD124.LOD1	-0.606883
	12190	O	-26.841500	29.123300	31.994000	O	2	YLD124.LOD1	-0.600198
	12191	C	-28.947043	27.800729	33.350587	C	2	YLD124.LOD1	0.267162
	12192	C	-24.571905	26.611772	29.479387	C	2	YLD124.LOD1	0.369124
	12193	C	-24.269684	25.182101	28.977414	C	2	YLD124.LOD1	-0.324271
	12194	H	-24.319166	24.440791	29.784762	H	2	YLD124.LOD1	0.053925
	12195	H	-25.005433	24.882586	28.217236	H	2	YLD124.LOD1	0.070181
	12196	H	-23.278278	25.107537	28.514403	H	2	YLD124.LOD1	0.052098
	12197	C	-30.480253	27.700333	33.510670	C	2	YLD124.LOD1	-0.316887
	12198	H	-30.733989	26.938969	34.262085	H	2	YLD124.LOD1	0.07213
	12199	H	-30.924421	28.645986	33.845648	H	2	YLD124.LOD1	0.059956
	12200	H	-30.975746	27.409783	32.575937	H	2	YLD124.LOD1	0.057948
	12201	C	-24.518182	27.588100	28.284411	C	2	YLD124.LOD1	-0.260833
	12202	H	-24.717382	28.620736	28.594331	H	2	YLD124.LOD1	0.041714
	12203	H	-23.540696	27.573325	27.787884	H	2	YLD124.LOD1	0.041636
	12204	H	-25.271359	27.315475	27.530969	H	2	YLD124.LOD1	0.048242
	12205	C	-25.994213	26.636376	30.080015	C	2	YLD124.LOD1	-0.256632
	12206	H	-26.731751	26.316879	29.329449	H	2	YLD124.LOD1	0.046696
	12207	H	-26.094364	25.961773	30.939209	H	2	YLD124.LOD1	0.030906
	12208	H	-26.283677	27.642438	30.406877	H	2	YLD124.LOD1	0.051975
	12209	C	-28.393898	26.428646	32.907695	C	2	YLD124.LOD1	-0.203727
	12210	H	-28.835234	26.095883	31.960102	H	2	YLD124.LOD1	0.027457
	12211	H	-27.305874	26.453250	32.781039	H	2	YLD124.LOD1	0.031775
	12212	H	-28.625968	25.662777	33.661694	H	2	YLD124.LOD1	0.046776
	12213	C	-28.320279	28.178778	34.710388	C	2	YLD124.LOD1	-0.249027
	12214	H	-28.707940	29.132723	35.088815	H	2	YLD124.LOD1	0.037596
	12215	H	-28.551960	27.411833	35.463472	H	2	YLD124.LOD1	0.055765
	12216	H	-27.229880	28.262166	34.643382	H	2	YLD124.LOD1	0.04836
	12217	C	-29.121533	30.800613	32.520000	C	2	YLD124.LOD1	-0.409962
	12218	H	-28.742801	31.096650	33.504727	H	2	YLD124.LOD1	0.090944
	12219	H	-28.804667	31.563762	31.798594	H	2	YLD124.LOD1	0.090896
	12220	H	-30.217128	30.832760	32.561007	H	2	YLD124.LOD1	0.069902
	12221	C	-29.193318	28.719968	30.381538	C	2	YLD124.LOD1	-0.458602
	12222	H	-28.896392	29.464267	29.632494	H	2	YLD124.LOD1	0.097974
	12223	H	-28.839724	27.741870	30.036608	H	2	YLD124.LOD1	0.103309
	12224	H	-30.289787	28.693442	30.391565	H	2	YLD124.LOD1	0.085827
	12225	C	-21.584207	27.232995	30.053306	C	2	YLD124.LOD1	-0.493974
	12226	H	-21.526316	27.994081	29.267429	H	2	YLD124.LOD1	0.11158
	12227	H	-20.849684	27.497172	30.822803	H	2	YLD124.LOD1	0.113577
	12228	H	-21.279068	26.275046	29.616477	H	2	YLD124.LOD1	0.09477
	12229	C	-23.265254	26.007108	32.214172	C	2	YLD124.LOD1	-0.483575
	12230	H	-22.530329	26.324219	32.964084	H	2	YLD124.LOD1	0.116965
	12231	H	-24.240775	25.945684	32.709730	H	2	YLD124.LOD1	0.100121
	12232	H	-22.993288	24.991325	31.903237	H	2	YLD124.LOD1	0.088084
	12233	Si	-23.255700	27.150500	30.780200	Si	2	YLD124.LOD1	0.763339
	12234	Si	-28.528200	29.135000	32.038200	Si	2	YLD124.LOD1	0.748472
	12235	H	-21.732825	29.524150	31.588949	H	2	YLD124.LOD1	-0.009815
	12236	H	-25.259671	31.695698	33.134891	H	2	YLD124.LOD1	0.057511
	12237	H	-25.112543	29.214012	33.005986	H	2	YLD124.LOD1	-0.045737
	12238	H	-26.528058	29.928599	33.801003	H	2	YLD124.LOD1	-0.011652
	12239	H	-26.479173	31.503248	31.892076	H	2	YLD124.LOD1	0.023801
	12240	H	-22.573797	31.449300	31.103443	H	2	YLD124.LOD1	-0.001966
	12241	H	-23.173235	31.466705	32.748663	H	2	YLD124.LOD1	0.031172
	12242	H	-22.750280	29.367043	33.030639	H	2	YLD124.LOD1	-0.066029
	12243	C	-26.862652	29.558814	21.365229	C	2	YLD124.LOD1	-0.185058
	12244	H	-27.589602	29.044242	22.005030	H	2	YLD124.LOD1	0.04722
	12245	H	-27.034746	29.228954	20.333699	H	2	YLD124.LOD1	0.027573
	12246	H	-25.862176	29.227304	21.660059	H	2	YLD124.LOD1	0.00699
	12247	C	-28.457698	31.471374	21.078198	C	2	YLD124.LOD1	-0.347891
	12248	H	-29.192210	30.993672	21.737945	H	2	YLD124.LOD1	0.075067
	12249	H	-28.613714	32.555804	21.131305	H	2	YLD124.LOD1	0.071859
	12250	H	-28.675129	31.150605	20.052255	H	2	YLD124.LOD1	0.077505
	12251	C	-18.677186	10.267422	26.771625	C	3	YLD124.LOD1	-0.158041
	12252	C	-19.617989	10.750042	25.910788	C	3	YLD124.LOD1	-0.174247
	12253	H	-20.042584	11.735371	26.096649	H	3	YLD124.LOD1	0.11023
	12254	H	-18.269160	9.275407	26.585122	H	3	YLD124.LOD1	0.116594
	12255	N	-16.452728	12.718511	31.420388	N	3	YLD124.LOD1	-0.477879
	12256	C	-16.986564	12.138906	30.281694	C	3	YLD124.LOD1	0.383639
	12257	C	-17.962528	12.807480	29.494049	C	3	YLD124.LOD1	-0.278193
	12258	C	-18.515100	12.215813	28.373451	C	3	YLD124.LOD1	-0.102205
	12259	C	-18.137672	10.925170	27.943167	C	3	YLD124.LOD1	0.126725
	12260	C	-17.161804	10.270006	28.722128	C	3	YLD124.LOD1	-0.148338
	12261	C	-16.597257	10.846531	29.847589	C	3	YLD124.LOD1	-0.248652
	12262	H	-18.292873	13.803643	29.760533	H	3	YLD124.LOD1	0.176041
	12263	H	-19.258747	12.776536	27.814870	H	3	YLD124.LOD1	0.098595
	12264	H	-16.834222	9.275218	28.427693	H	3	YLD124.LOD1	0.105176
	12265	H	-15.844984	10.286952	30.389410	H	3	YLD124.LOD1	0.157607
	12266	C	-20.139270	10.072392	24.755143	C	3	YLD124.LOD1	0.13089
	12267	C	-21.119173	10.680336	24.003379	C	3	YLD124.LOD1	-0.298955
	12268	C	-19.644734	8.695384	24.364399	C	3	YLD124.LOD1	0.000678
	12269	H	-21.453396	11.674924	24.294902	H	3	YLD124.LOD1	0.128536
	12270	C	-19.868349	8.347124	22.874002	C	3	YLD124.LOD1	0.312314
	12271	H	-18.577377	8.598627	24.596034	H	3	YLD124.LOD1	0.009572
	12272	C	-21.332081	8.679779	22.501156	C	3	YLD124.LOD1	0.132423
	12273	H	-21.998079	7.991671	23.044645	H	3	YLD124.LOD1	-0.011706
	12274	C	-21.731834	10.096387	22.854830	C	3	YLD124.LOD1	0.094029
	12275	C	-22.644105	10.906820	22.252768	C	3	YLD124.LOD1	-0.194272
	12276	H	-22.866095	11.907348	22.623612	H	3	YLD124.LOD1	0.118653
	12277	C	-23.348836	10.486751	21.102198	C	3	YLD124.LOD1	0.029031
	12278	C	-24.256602	11.289088	20.441385	C	3	YLD124.LOD1	-0.298661
	12279	H	-23.156580	9.491489	20.718855	H	3	YLD124.LOD1	0.063317
	12280	C	-24.971644	10.967929	19.267253	C	3	YLD124.LOD1	0.24754
	12281	C	-25.812349	11.828382	18.570053	C	3	YLD124.LOD1	-0.281071
	12282	C	-24.968136	9.640407	18.504003	C	3	YLD124.LOD1	-0.098074
	12283	C	-26.309262	11.160204	17.397281	C	3	YLD124.LOD1	0.526995
	12284	C	-26.083151	13.159085	18.977942	C	3	YLD124.LOD1	0.389724
	12285	O	-25.780076	9.914398	17.329566	O	3	YLD124.LOD1	-0.351072
	12286	C	-25.785496	8.432564	19.227469	C	3	YLD124.LOD1	0.617997
	12287	C	-23.602925	9.069309	17.998771	C	3	YLD124.LOD1	0.253109
	12288	C	-27.157507	11.569703	16.392366	C	3	YLD124.LOD1	-0.451385
	12289	N	-26.240694	14.237300	19.389245	N	3	YLD124.LOD1	-0.428829
	12290	F	-26.978207	8.928597	19.589639	F	3	YLD124.LOD1	-0.200469
	12291	F	-26.005001	7.344340	18.472600	F	3	YLD124.LOD1	-0.158364
	12292	F	-25.146990	8.033279	20.349949	F	3	YLD124.LOD1	-0.193377
	12293	C	-22.515536	9.884922	18.345788	C	3	YLD124.LOD1	-0.158716
	12294	C	-23.370431	7.920777	17.231629	C	3	YLD124.LOD1	-0.162688
	12295	C	-27.748193	12.866039	16.373012	C	3	YLD124.LOD1	0.447489
	12296	C	-27.472472	10.682976	15.319949	C	3	YLD124.LOD1	0.491336
	12297	H	-22.680979	10.782988	18.933429	H	3	YLD124.LOD1	0.085247
	12298	C	-21.223795	9.558381	17.943254	C	3	YLD124.LOD1	-0.074329
	12299	C	-22.071385	7.590912	16.837337	C	3	YLD124.LOD1	-0.055824
	12300	H	-24.186027	7.277212	16.928589	H	3	YLD124.LOD1	0.099228
	12301	N	-28.251758	13.914806	16.317746	N	3	YLD124.LOD1	-0.454587
	12302	N	-27.736298	9.970572	14.437394	N	3	YLD124.LOD1	-0.481156
	12303	H	-20.395935	10.205010	18.219451	H	3	YLD124.LOD1	0.111202
	12304	C	-20.996352	8.404827	17.189567	C	3	YLD124.LOD1	-0.106678
	12305	H	-21.908183	6.697321	16.241382	H	3	YLD124.LOD1	0.095951
	12306	H	-19.988832	8.147061	16.875238	H	3	YLD124.LOD1	0.103827
	12307	H	-24.432781	12.290125	20.831315	H	3	YLD124.LOD1	0.159396
	12308	H	-21.487044	8.479407	21.435984	H	3	YLD124.LOD1	-0.052081
	12309	H	-20.157856	7.948880	24.990430	H	3	YLD124.LOD1	-0.003289
	12310	C	-16.751131	14.045607	31.823734	C	3	YLD124.LOD1	0.198954
	12311	C	-15.431279	12.084006	32.190340	C	3	YLD124.LOD1	0.115128
	12312	C	-14.045589	12.114227	31.825331	C	3	YLD124.LOD1	0.306486
	12313	C	-15.902282	15.088337	31.356111	C	3	YLD124.LOD1	0.28632
	12314	O	-15.049600	14.630200	30.419300	O	3	YLD124.LOD1	-0.606883
	12315	O	-13.484300	10.932800	31.502800	O	3	YLD124.LOD1	-0.600198
	12316	C	-13.541971	8.149831	32.026879	C	3	YLD124.LOD1	0.267162
	12317	C	-13.883320	13.785385	27.814850	C	3	YLD124.LOD1	0.369124
	12318	C	-13.712863	14.242434	26.348793	C	3	YLD124.LOD1	-0.324271
	12319	H	-13.112158	15.156951	26.267463	H	3	YLD124.LOD1	0.053925
	12320	H	-13.199341	13.464741	25.765358	H	3	YLD124.LOD1	0.070181
	12321	H	-14.676378	14.429864	25.859578	H	3	YLD124.LOD1	0.052098
	12322	C	-13.019985	7.027276	32.950914	C	3	YLD124.LOD1	-0.316887
	12323	H	-13.417910	6.054621	32.627993	H	3	YLD124.LOD1	0.07213
	12324	H	-11.925619	6.951216	32.932583	H	3	YLD124.LOD1	0.059956
	12325	H	-13.328488	7.172723	33.993665	H	3	YLD124.LOD1	0.057948
	12326	C	-14.706092	12.479139	27.843825	C	3	YLD124.LOD1	-0.260833
	12327	H	-14.862112	12.120018	28.867914	H	3	YLD124.LOD1	0.041714
	12328	H	-15.692787	12.607023	27.383050	H	3	YLD124.LOD1	0.041636
	12329	H	-14.186578	11.685066	27.288103	H	3	YLD124.LOD1	0.048242
	12330	C	-12.487219	13.508873	28.413819	C	3	YLD124.LOD1	-0.256632
	12331	H	-11.960939	12.746734	27.820890	H	3	YLD124.LOD1	0.046696
	12332	H	-11.854231	14.404732	28.423674	H	3	YLD124.LOD1	0.030906
	12333	H	-12.549748	13.130008	29.441116	H	3	YLD124.LOD1	0.051975
	12334	C	-15.084995	8.174773	32.083372	C	3	YLD124.LOD1	-0.203727
	12335	H	-15.454627	8.344173	33.102252	H	3	YLD124.LOD1	0.027457
	12336	H	-15.500357	8.958983	31.440774	H	3	YLD124.LOD1	0.031775
	12337	H	-15.494379	7.212302	31.744285	H	3	YLD124.LOD1	0.046776
	12338	C	-13.097984	7.858556	30.576760	C	3	YLD124.LOD1	-0.249027
	12339	H	-12.006420	7.794763	30.487781	H	3	YLD124.LOD1	0.037596
	12340	H	-13.508704	6.896435	30.238164	H	3	YLD124.LOD1	0.055765
	12341	H	-13.446795	8.632650	29.884283	H	3	YLD124.LOD1	0.04836
	12342	C	-11.003885	9.889859	32.526695	C	3	YLD124.LOD1	-0.409962
	12343	H	-10.634447	9.640887	31.525551	H	3	YLD124.LOD1	0.090944
	12344	H	-10.620410	10.884607	32.784866	H	3	YLD124.LOD1	0.090896
	12345	H	-10.556387	9.179975	33.232991	H	3	YLD124.LOD1	0.069902
	12346	C	-13.370839	10.272883	34.303649	C	3	YLD124.LOD1	-0.458602
	12347	H	-13.003678	11.264018	34.597002	H	3	YLD124.LOD1	0.097974
	12348	H	-14.462911	10.283138	34.392837	H	3	YLD124.LOD1	0.103309
	12349	H	-12.983191	9.556027	35.037745	H	3	YLD124.LOD1	0.085827
	12350	C	-16.514744	15.389151	28.195335	C	3	YLD124.LOD1	-0.493974
	12351	H	-17.124012	14.485148	28.303851	H	3	YLD124.LOD1	0.11158
	12352	H	-17.009768	16.189705	28.757030	H	3	YLD124.LOD1	0.113577
	12353	H	-16.519980	15.672794	27.136507	H	3	YLD124.LOD1	0.09477
	12354	C	-13.893029	16.713401	28.803898	C	3	YLD124.LOD1	-0.483575
	12355	H	-14.416295	17.474894	29.394968	H	3	YLD124.LOD1	0.116965
	12356	H	-12.877031	16.621706	29.204315	H	3	YLD124.LOD1	0.100121
	12357	H	-13.806525	17.099826	27.781326	H	3	YLD124.LOD1	0.088084
	12358	Si	-14.821700	15.132100	28.825100	Si	3	YLD124.LOD1	0.763339
	12359	Si	-12.833900	9.835040	32.606900	Si	3	YLD124.LOD1	0.748472
	12360	H	-16.502839	15.910098	30.939147	H	3	YLD124.LOD1	-0.009815
	12361	H	-15.515110	12.436695	33.222213	H	3	YLD124.LOD1	0.057511
	12362	H	-14.013727	12.788576	30.957493	H	3	YLD124.LOD1	-0.045737
	12363	H	-13.465720	12.586691	32.632396	H	3	YLD124.LOD1	-0.011652
	12364	H	-15.654446	11.012162	32.212211	H	3	YLD124.LOD1	0.023801
	12365	H	-17.769372	14.265115	31.485570	H	3	YLD124.LOD1	-0.001966
	12366	H	-16.778885	14.071107	32.916540	H	3	YLD124.LOD1	0.031172
	12367	H	-15.334580	15.494891	32.204509	H	3	YLD124.LOD1	-0.066029
	12368	C	-18.897702	9.182983	22.046838	C	3	YLD124.LOD1	-0.185058
	12369	H	-17.858128	8.929279	22.286644	H	3	YLD124.LOD1	0.04722
	12370	H	-19.061790	8.949117	20.988132	H	3	YLD124.LOD1	0.027573
	12371	H	-19.017245	10.263490	22.173286	H	3	YLD124.LOD1	0.00699
	12372	C	-19.623753	6.881305	22.724758	C	3	YLD124.LOD1	-0.347891
	12373	H	-18.597674	6.609039	23.000447	H	3	YLD124.LOD1	0.075067
	12374	H	-20.306855	6.272285	23.329420	H	3	YLD124.LOD1	0.071859
	12375	H	-19.769138	6.605411	21.673343	H	3	YLD124.LOD1	0.077505
	12376	C	-28.974646	-24.577743	6.129684	C	4	YLD124.LOD1	-0.158041
	12377	C	-29.233529	-23.544681	5.278312	C	4	YLD124.LOD1	-0.174247
	12378	H	-28.623853	-23.438109	4.382413	H	4	YLD124.LOD1	0.11023
	12379	H	-29.580519	-24.667367	7.029822	H	4	YLD124.LOD1	0.116594
	12380	N	-25.027978	-28.679490	5.721609	N	4	YLD124.LOD1	-0.477879
	12381	C	-25.992885	-27.689636	5.803409	C	4	YLD124.LOD1	0.383639
	12382	C	-26.120326	-26.690094	4.801134	C	4	YLD124.LOD1	-0.278193
	12383	C	-27.065699	-25.686138	4.898537	C	4	YLD124.LOD1	-0.102205
	12384	C	-27.960446	-25.601150	5.987371	C	4	YLD124.LOD1	0.126725
	12385	C	-27.836720	-26.600840	6.974108	C	4	YLD124.LOD1	-0.148338
	12386	C	-26.896008	-27.613935	6.893766	C	4	YLD124.LOD1	-0.248652
	12387	H	-25.472534	-26.698625	3.933507	H	4	YLD124.LOD1	0.176041
	12388	H	-27.111448	-24.949593	4.101768	H	4	YLD124.LOD1	0.098595
	12389	H	-28.507618	-26.581051	7.830326	H	4	YLD124.LOD1	0.105176
	12390	H	-26.867931	-28.353251	7.684486	H	4	YLD124.LOD1	0.157607
	12391	C	-30.246453	-22.538647	5.446658	C	4	YLD124.LOD1	0.13089
	12392	C	-30.358407	-21.533328	4.512981	C	4	YLD124.LOD1	-0.298955
	12393	C	-31.175977	-22.554443	6.642123	C	4	YLD124.LOD1	0.000678
	12394	H	-29.687600	-21.546028	3.655221	H	4	YLD124.LOD1	0.128536
	12395	C	-32.500937	-21.788455	6.417819	C	4	YLD124.LOD1	0.312314
	12396	H	-31.406396	-23.588007	6.926586	H	4	YLD124.LOD1	0.009572
	12397	C	-32.175610	-20.398588	5.822320	C	4	YLD124.LOD1	0.132423
	12398	H	-31.643848	-19.806206	6.583068	H	4	YLD124.LOD1	-0.011706
	12399	C	-31.303250	-20.466882	4.587011	C	4	YLD124.LOD1	0.094029
	12400	C	-31.250658	-19.617992	3.524809	C	4	YLD124.LOD1	-0.194272
	12401	H	-30.551135	-19.760788	2.701318	H	4	YLD124.LOD1	0.118653
	12402	C	-32.114872	-18.503471	3.435972	C	4	YLD124.LOD1	0.029031
	12403	C	-32.118148	-17.637907	2.361148	C	4	YLD124.LOD1	-0.298661
	12404	H	-32.812543	-18.330512	4.247020	H	4	YLD124.LOD1	0.063317
	12405	C	-32.970538	-16.528733	2.170939	C	4	YLD124.LOD1	0.24754
	12406	C	-33.014480	-15.726209	1.036357	C	4	YLD124.LOD1	-0.281071
	12407	C	-34.026249	-15.984246	3.137318	C	4	YLD124.LOD1	-0.098074
	12408	C	-34.048978	-14.739178	1.192447	C	4	YLD124.LOD1	0.526995
	12409	C	-32.168376	-15.911015	-0.086332	C	4	YLD124.LOD1	0.389724
	12410	O	-34.669961	-14.920937	2.383245	O	4	YLD124.LOD1	-0.351072
	12411	C	-33.429250	-15.193048	4.428771	C	4	YLD124.LOD1	0.617997
	12412	C	-35.154534	-16.945815	3.635140	C	4	YLD124.LOD1	0.253109
	12413	C	-34.490776	-13.728020	0.368167	C	4	YLD124.LOD1	-0.451385
	12414	N	-31.435356	-16.143717	-0.961015	N	4	YLD124.LOD1	-0.428829
	12415	F	-32.514041	-14.326729	3.968706	F	4	YLD124.LOD1	-0.200469
	12416	F	-34.323595	-14.500652	5.151940	F	4	YLD124.LOD1	-0.158364
	12417	F	-32.801463	-16.051811	5.262732	F	4	YLD124.LOD1	-0.193377
	12418	C	-34.970248	-18.266752	3.200137	C	4	YLD124.LOD1	-0.158716
	12419	C	-36.300591	-16.630338	4.375893	C	4	YLD124.LOD1	-0.162688
	12420	C	-33.908281	-13.473086	-0.906776	C	4	YLD124.LOD1	0.447489
	12421	C	-35.569505	-12.891014	0.782085	C	4	YLD124.LOD1	0.491336
	12422	H	-34.090646	-18.525052	2.618074	H	4	YLD124.LOD1	0.085247
	12423	C	-35.904307	-19.252996	3.503638	C	4	YLD124.LOD1	-0.074329
	12424	C	-37.231364	-17.624705	4.686848	C	4	YLD124.LOD1	-0.055824
	12425	H	-36.486772	-15.618874	4.712767	H	4	YLD124.LOD1	0.099228
	12426	N	-33.462056	-13.230442	-1.954894	N	4	YLD124.LOD1	-0.454587
	12427	N	-36.450484	-12.201877	1.106112	N	4	YLD124.LOD1	-0.481156
	12428	H	-35.744731	-20.269054	3.154458	H	4	YLD124.LOD1	0.111202
	12429	C	-37.038640	-18.935269	4.253839	C	4	YLD124.LOD1	-0.106678
	12430	H	-38.115769	-17.363237	5.261097	H	4	YLD124.LOD1	0.095951
	12431	H	-37.768560	-19.703569	4.493165	H	4	YLD124.LOD1	0.103827
	12432	H	-31.419134	-17.829075	1.548749	H	4	YLD124.LOD1	0.159396
	12433	H	-33.110361	-19.866607	5.617395	H	4	YLD124.LOD1	-0.052081
	12434	H	-30.646728	-22.115945	7.502410	H	4	YLD124.LOD1	-0.003289
	12435	C	-24.172532	-28.842428	4.601132	C	4	YLD124.LOD1	0.198954
	12436	C	-24.914941	-29.727799	6.685022	C	4	YLD124.LOD1	0.115128
	12437	C	-25.665334	-30.937168	6.550937	C	4	YLD124.LOD1	0.306486
	12438	C	-24.549316	-29.786473	3.604452	C	4	YLD124.LOD1	0.28632
	12439	O	-25.821600	-30.192100	3.782100	O	4	YLD124.LOD1	-0.606883
	12440	O	-26.945200	-30.841300	6.960660	O	4	YLD124.LOD1	-0.600198
	12441	C	-29.355264	-30.695837	8.441536	C	4	YLD124.LOD1	0.267162
	12442	C	-28.560823	-30.364108	2.631396	C	4	YLD124.LOD1	0.369124
	12443	C	-29.456544	-31.254545	1.741407	C	4	YLD124.LOD1	-0.324271
	12444	H	-29.633035	-32.241252	2.187569	H	4	YLD124.LOD1	0.053925
	12445	H	-30.439554	-30.783049	1.598963	H	4	YLD124.LOD1	0.070181
	12446	H	-29.025308	-31.409674	0.745016	H	4	YLD124.LOD1	0.052098
	12447	C	-30.021966	-30.996370	9.802281	C	4	YLD124.LOD1	-0.316887
	12448	H	-31.080311	-30.699590	9.779756	H	4	YLD124.LOD1	0.07213
	12449	H	-29.990776	-32.064324	10.051795	H	4	YLD124.LOD1	0.059956
	12450	H	-29.549281	-30.445908	10.625214	H	4	YLD124.LOD1	0.057948
	12451	C	-28.388544	-28.986449	1.955785	C	4	YLD124.LOD1	-0.260833
	12452	H	-27.749811	-28.320644	2.548062	H	4	YLD124.LOD1	0.041714
	12453	H	-27.942445	-29.073251	0.957939	H	4	YLD124.LOD1	0.041636
	12454	H	-29.363635	-28.492424	1.835744	H	4	YLD124.LOD1	0.048242
	12455	C	-29.256574	-30.167034	3.995731	C	4	YLD124.LOD1	-0.256632
	12456	H	-30.249492	-29.715144	3.856804	H	4	YLD124.LOD1	0.046696
	12457	H	-29.404380	-31.114892	4.527759	H	4	YLD124.LOD1	0.030906
	12458	H	-28.688105	-29.497741	4.652752	H	4	YLD124.LOD1	0.051975
	12459	C	-29.465001	-29.183787	8.147597	C	4	YLD124.LOD1	-0.203727
	12460	H	-28.984508	-28.579364	8.926854	H	4	YLD124.LOD1	0.027457
	12461	H	-29.003239	-28.923903	7.188598	H	4	YLD124.LOD1	0.031775
	12462	H	-30.520710	-28.879611	8.104223	H	4	YLD124.LOD1	0.046776
	12463	C	-30.093944	-31.477014	7.332966	C	4	YLD124.LOD1	-0.249027
	12464	H	-30.076546	-32.558965	7.513462	H	4	YLD124.LOD1	0.037596
	12465	H	-31.149287	-31.171420	7.289616	H	4	YLD124.LOD1	0.055765
	12466	H	-29.652599	-31.293793	6.347035	H	4	YLD124.LOD1	0.04836
	12467	C	-27.308541	-33.018522	8.808952	C	4	YLD124.LOD1	-0.409962
	12468	H	-27.856837	-33.619543	8.074849	H	4	YLD124.LOD1	0.090944
	12469	H	-26.253921	-33.316460	8.761661	H	4	YLD124.LOD1	0.090896
	12470	H	-27.675490	-33.293431	9.805354	H	4	YLD124.LOD1	0.069902
	12471	C	-26.559668	-30.290975	9.761044	C	4	YLD124.LOD1	-0.458602
	12472	H	-25.497608	-30.564707	9.743357	H	4	YLD124.LOD1	0.097974
	12473	H	-26.626856	-29.209168	9.600230	H	4	YLD124.LOD1	0.103309
	12474	H	-26.929226	-30.501228	10.772118	H	4	YLD124.LOD1	0.085827
	12475	C	-25.944754	-31.309219	1.251172	C	4	YLD124.LOD1	-0.493974
	12476	H	-25.741661	-30.322928	0.819676	H	4	YLD124.LOD1	0.11158
	12477	H	-24.981036	-31.811777	1.393014	H	4	YLD124.LOD1	0.113577
	12478	H	-26.516397	-31.886653	0.515379	H	4	YLD124.LOD1	0.09477
	12479	C	-26.976315	-32.824423	3.625610	C	4	YLD124.LOD1	-0.483575
	12480	H	-25.986906	-33.276776	3.765214	H	4	YLD124.LOD1	0.116965
	12481	H	-27.469329	-32.794431	4.603889	H	4	YLD124.LOD1	0.100121
	12482	H	-27.556234	-33.503539	2.989247	H	4	YLD124.LOD1	0.088084
	12483	Si	-26.824000	-31.172200	2.844130	Si	4	YLD124.LOD1	0.763339
	12484	Si	-27.512500	-31.223200	8.503220	Si	4	YLD124.LOD1	0.748472
	12485	H	-24.437211	-29.349904	2.601127	H	4	YLD124.LOD1	-0.009815
	12486	H	-23.854266	-29.968155	6.800683	H	4	YLD124.LOD1	0.057511
	12487	H	-25.636879	-31.167676	5.476246	H	4	YLD124.LOD1	-0.045737
	12488	H	-25.172843	-31.766846	7.080003	H	4	YLD124.LOD1	-0.011652
	12489	H	-25.245661	-29.323134	7.647313	H	4	YLD124.LOD1	0.023801
	12490	H	-24.087163	-27.863997	4.116636	H	4	YLD124.LOD1	-0.001966
	12491	H	-23.173541	-29.089729	4.970599	H	4	YLD124.LOD1	0.031172
	12492	H	-23.874612	-30.651764	3.662735	H	4	YLD124.LOD1	-0.066029
	12493	C	-33.354968	-22.602537	5.452039	C	4	YLD124.LOD1	-0.185058
	12494	H	-33.613032	-23.577617	5.882396	H	4	YLD124.LOD1	0.04722
	12495	H	-34.290250	-22.056662	5.279568	H	4	YLD124.LOD1	0.027573
	12496	H	-32.885970	-22.778632	4.478999	H	4	YLD124.LOD1	0.00699
	12497	C	-33.148872	-21.632438	7.754403	C	4	YLD124.LOD1	-0.347891
	12498	H	-33.375648	-22.602504	8.213225	H	4	YLD124.LOD1	0.075067
	12499	H	-32.534000	-21.062048	8.461325	H	4	YLD124.LOD1	0.071859
	12500	H	-34.097016	-21.096572	7.625564	H	4	YLD124.LOD1	0.077505
	12501	C	-18.275087	12.503513	11.112432	C	1	YLD124_chi.LOD1	-0.150166
	12502	C	-17.709933	11.307901	11.444355	C	1	YLD124_chi.LOD1	-0.190723
	12503	H	-18.141802	10.730820	12.260557	H	1	YLD124_chi.LOD1	0.123134
	12504	H	-17.822520	13.079933	10.307276	H	1	YLD124_chi.LOD1	0.111619
	12505	N	-22.717686	15.180225	13.490033	N	1	YLD124_chi.LOD1	-0.506176
	12506	C	-21.662820	14.507010	12.896903	C	1	YLD124_chi.LOD1	0.404469
	12507	C	-21.264473	13.214633	13.333701	C	1	YLD124_chi.LOD1	-0.281203
	12508	C	-20.182505	12.563779	12.770571	C	1	YLD124_chi.LOD1	-0.112562
	12509	C	-19.423502	13.135903	11.726571	C	1	YLD124_chi.LOD1	0.131862
	12510	C	-19.839293	14.406639	11.278699	C	1	YLD124_chi.LOD1	-0.140167
	12511	C	-20.918539	15.074820	11.832075	C	1	YLD124_chi.LOD1	-0.26473
	12512	H	-21.808799	12.711479	14.123027	H	1	YLD124_chi.LOD1	0.177954
	12513	H	-19.924086	11.579927	13.151052	H	1	YLD124_chi.LOD1	0.098859
	12514	H	-19.292374	14.883788	10.468259	H	1	YLD124_chi.LOD1	0.103807
	12515	H	-21.182807	16.045409	11.431179	H	1	YLD124_chi.LOD1	0.161189
	12516	C	-16.545133	10.725208	10.835626	C	1	YLD124_chi.LOD1	0.100982
	12517	C	-16.049641	9.538557	11.326585	C	1	YLD124_chi.LOD1	-0.303623
	12518	C	-15.834903	11.414590	9.689576	C	1	YLD124_chi.LOD1	0.096207
	12519	H	-16.581707	9.053209	12.143422	H	1	YLD124_chi.LOD1	0.124941
	12520	C	-14.962350	10.469539	8.830825	C	1	YLD124_chi.LOD1	0.409462
	12521	H	-16.565010	11.912814	9.040531	H	1	YLD124_chi.LOD1	-0.020765
	12522	C	-14.078630	9.618179	9.772285	C	1	YLD124_chi.LOD1	-0.014279
	12523	H	-13.351671	10.280855	10.266997	H	1	YLD124_chi.LOD1	-0.02177
	12524	C	-14.867490	8.900086	10.846493	C	1	YLD124_chi.LOD1	0.179445
	12525	C	-14.581509	7.735019	11.486713	C	1	YLD124_chi.LOD1	-0.27725
	12526	H	-15.223419	7.327847	12.267746	H	1	YLD124_chi.LOD1	0.132087
	12527	C	-13.425295	6.988917	11.164563	C	1	YLD124_chi.LOD1	0.141075
	12528	C	-13.097513	5.804435	11.792342	C	1	YLD124_chi.LOD1	-0.327608
	12529	H	-12.760931	7.376186	10.400828	H	1	YLD124_chi.LOD1	-0.027316
	12530	C	-11.961926	5.001686	11.549148	C	1	YLD124_chi.LOD1	0.260653
	12531	C	-11.621500	3.849483	12.248848	C	1	YLD124_chi.LOD1	-0.287606
	12532	C	-10.873183	5.215574	10.494035	C	1	YLD124_chi.LOD1	-0.056548
	12533	C	-10.378739	3.334036	11.740180	C	1	YLD124_chi.LOD1	0.509074
	12534	C	-12.401039	3.317569	13.307146	C	1	YLD124_chi.LOD1	0.396907
	12535	O	-9.922769	4.145525	10.756012	O	1	YLD124_chi.LOD1	-0.366332
	12536	C	-10.068725	6.558586	10.503656	C	1	YLD124_chi.LOD1	0.253806
	12537	C	-11.337362	4.910831	8.956873	C	1	YLD124_chi.LOD1	0.598114
	12538	C	-9.624375	2.235711	12.089418	C	1	YLD124_chi.LOD1	-0.43234
	12539	N	-13.103169	2.960289	14.164988	N	1	YLD124_chi.LOD1	-0.430249
	12540	C	-10.018066	1.335918	13.121456	C	1	YLD124_chi.LOD1	0.437474
	12541	C	-8.399699	1.966714	11.408735	C	1	YLD124_chi.LOD1	0.49223
	12542	N	-10.301386	0.576251	13.957634	N	1	YLD124_chi.LOD1	-0.451871
	12543	N	-7.397171	1.736181	10.863000	N	1	YLD124_chi.LOD1	-0.482758
	12544	H	-13.761288	5.440956	12.574923	H	1	YLD124_chi.LOD1	0.157364
	12545	H	-13.492722	8.911259	9.175669	H	1	YLD124_chi.LOD1	0.040059
	12546	H	-15.202556	12.216277	10.102042	H	1	YLD124_chi.LOD1	-0.024244
	12547	C	-23.506143	14.588680	14.511146	C	1	YLD124_chi.LOD1	0.240322
	12548	C	-23.190718	16.454294	13.042972	C	1	YLD124_chi.LOD1	0.113854
	12549	C	-24.427574	16.560145	12.340993	C	1	YLD124_chi.LOD1	0.29958
	12550	C	-24.382126	13.537061	14.125172	C	1	YLD124_chi.LOD1	0.285774
	12551	O	-24.241100	13.245600	12.816900	O	1	YLD124_chi.LOD1	-0.61175
	12552	O	-25.487200	16.172900	13.077700	O	1	YLD124_chi.LOD1	-0.599726
	12553	C	-27.760207	17.861246	12.714027	C	1	YLD124_chi.LOD1	0.275329
	12554	C	-24.634824	12.807684	9.899856	C	1	YLD124_chi.LOD1	0.358728
	12555	C	-25.361100	11.815451	8.964755	C	1	YLD124_chi.LOD1	-0.337707
	12556	H	-26.431394	12.039645	8.875890	H	1	YLD124_chi.LOD1	0.059176
	12557	H	-24.934726	11.863574	7.952444	H	1	YLD124_chi.LOD1	0.075606
	12558	H	-25.263355	10.777836	9.307040	H	1	YLD124_chi.LOD1	0.056098
	12559	C	-28.612174	16.690659	12.175478	C	1	YLD124_chi.LOD1	-0.311529
	12560	H	-29.344003	17.059211	11.442433	H	1	YLD124_chi.LOD1	0.071087
	12561	H	-28.001877	15.932462	11.669002	H	1	YLD124_chi.LOD1	0.058721
	12562	H	-29.177069	16.189264	12.971202	H	1	YLD124_chi.LOD1	0.056179
	12563	C	-23.130060	12.462460	9.933999	C	1	YLD124_chi.LOD1	-0.279876
	12564	H	-22.575380	13.131003	10.603068	H	1	YLD124_chi.LOD1	0.048405
	12565	H	-22.952443	11.433740	10.269405	H	1	YLD124_chi.LOD1	0.047411
	12566	H	-22.691737	12.558840	8.930114	H	1	YLD124_chi.LOD1	0.054899
	12567	C	-24.803977	14.236184	9.338203	C	1	YLD124_chi.LOD1	-0.273001
	12568	H	-24.402769	14.294737	8.315968	H	1	YLD124_chi.LOD1	0.0526
	12569	H	-25.856229	14.542945	9.290201	H	1	YLD124_chi.LOD1	0.034813
	12570	H	-24.264163	14.978723	9.938188	H	1	YLD124_chi.LOD1	0.061699
	12571	C	-28.688042	18.895335	13.388041	C	1	YLD124_chi.LOD1	-0.202774
	12572	H	-29.257321	18.458187	14.217755	H	1	YLD124_chi.LOD1	0.027959
	12573	H	-28.123336	19.748316	13.780535	H	1	YLD124_chi.LOD1	0.030756
	12574	H	-29.417054	19.283194	12.661942	H	1	YLD124_chi.LOD1	0.045471
	12575	C	-27.028993	18.539399	11.534996	C	1	YLD124_chi.LOD1	-0.266625
	12576	H	-26.381379	17.837094	10.995854	H	1	YLD124_chi.LOD1	0.041283
	12577	H	-27.756733	18.932468	10.810495	H	1	YLD124_chi.LOD1	0.059445
	12578	H	-26.409220	19.377359	11.872810	H	1	YLD124_chi.LOD1	0.054675
	12579	C	-27.272584	16.244612	15.334234	C	1	YLD124_chi.LOD1	-0.410828
	12580	H	-28.004001	15.523421	14.952587	H	1	YLD124_chi.LOD1	0.093855
	12581	H	-26.529374	15.686504	15.916921	H	1	YLD124_chi.LOD1	0.090546
	12582	H	-27.794221	16.910097	16.032750	H	1	YLD124_chi.LOD1	0.070213
	12583	C	-25.478643	18.543770	14.705317	C	1	YLD124_chi.LOD1	-0.460074
	12584	H	-24.454428	18.538721	14.312656	H	1	YLD124_chi.LOD1	0.099819
	12585	H	-25.910056	19.528291	14.492909	H	1	YLD124_chi.LOD1	0.10243
	12586	H	-25.404458	18.440222	15.794574	H	1	YLD124_chi.LOD1	0.086844
	12587	C	-25.633986	10.937446	12.162944	C	1	YLD124_chi.LOD1	-0.477029
	12588	H	-24.798649	10.297347	11.858545	H	1	YLD124_chi.LOD1	0.107463
	12589	H	-25.733833	10.853547	13.251301	H	1	YLD124_chi.LOD1	0.106999
	12590	H	-26.547964	10.532596	11.712655	H	1	YLD124_chi.LOD1	0.090486
	12591	C	-26.915167	13.623523	11.823374	C	1	YLD124_chi.LOD1	-0.470103
	12592	H	-27.310895	13.869580	10.830378	H	1	YLD124_chi.LOD1	0.112461
	12593	H	-27.698965	13.087817	12.371172	H	1	YLD124_chi.LOD1	0.098066
	12594	H	-26.743098	14.571668	12.346697	H	1	YLD124_chi.LOD1	0.083138
	12595	Si	-25.352300	12.676400	11.682800	Si	1	YLD124_chi.LOD1	0.770043
	12596	Si	-26.483100	17.193200	13.979500	Si	1	YLD124_chi.LOD1	0.73989
	12597	H	-24.176241	12.641466	14.729262	H	1	YLD124_chi.LOD1	-0.017464
	12598	H	-23.327704	17.088528	13.923421	H	1	YLD124_chi.LOD1	0.058354
	12599	H	-24.596835	17.578560	11.963068	H	1	YLD124_chi.LOD1	-0.04034
	12600	H	-24.323981	15.896810	11.469173	H	1	YLD124_chi.LOD1	-0.007901
	12601	H	-22.384927	16.910051	12.458076	H	1	YLD124_chi.LOD1	0.028132
	12602	H	-22.822977	14.206210	15.276323	H	1	YLD124_chi.LOD1	-0.011538
	12603	H	-24.095298	15.374847	14.991867	H	1	YLD124_chi.LOD1	0.020652
	12604	H	-25.422179	13.832514	14.321461	H	1	YLD124_chi.LOD1	-0.064856
	12605	C	-15.894348	9.585482	8.018647	C	1	YLD124_chi.LOD1	-0.299384
	12606	H	-16.502684	10.183377	7.329459	H	1	YLD124_chi.LOD1	0.066854
	12607	H	-15.280101	8.906295	7.415435	H	1	YLD124_chi.LOD1	0.072315
	12608	H	-16.573452	8.975448	8.622385	H	1	YLD124_chi.LOD1	0.027971
	12609	C	-14.101444	11.336347	7.967827	C	1	YLD124_chi.LOD1	-0.427943
	12610	H	-14.699924	11.967522	7.299776	H	1	YLD124_chi.LOD1	0.089807
	12611	H	-13.438879	11.992295	8.545661	H	1	YLD124_chi.LOD1	0.091303
	12612	H	-13.473006	10.692485	7.340812	H	1	YLD124_chi.LOD1	0.089757
	12613	C	-9.683763	6.976930	11.786385	C	1	YLD124_chi.LOD1	-0.158763
	12614	C	-9.720038	7.349345	9.401287	C	1	YLD124_chi.LOD1	-0.147279
	12615	C	-8.973112	8.160262	11.966021	C	1	YLD124_chi.LOD1	-0.065518
	12616	H	-9.939336	6.371424	12.650717	H	1	YLD124_chi.LOD1	0.080042
	12617	C	-9.014733	8.540540	9.586048	C	1	YLD124_chi.LOD1	-0.090746
	12618	H	-9.983202	7.050839	8.394956	H	1	YLD124_chi.LOD1	0.09871
	12619	C	-8.638647	8.949813	10.863952	C	1	YLD124_chi.LOD1	-0.09866
	12620	H	-8.681683	8.464342	12.967235	H	1	YLD124_chi.LOD1	0.104949
	12621	H	-8.085205	9.874507	11.001646	H	1	YLD124_chi.LOD1	0.102095
	12622	H	-8.752501	9.142054	8.720238	H	1	YLD124_chi.LOD1	0.105434
	12623	F	-12.119428	3.821576	9.001330	F	1	YLD124_chi.LOD1	-0.19867
	12624	F	-10.341280	4.663943	8.090908	F	1	YLD124_chi.LOD1	-0.154403
	12625	F	-12.073926	5.928159	8.456625	F	1	YLD124_chi.LOD1	-0.186491
	12626	C	6.650682	12.715963	9.558942	C	2	YLD124_chi.LOD1	-0.150166
	12627	C	7.677677	12.391962	10.395221	C	2	YLD124_chi.LOD1	-0.190723
	12628	H	7.721710	11.385420	10.808322	H	2	YLD124_chi.LOD1	0.123134
	12629	H	6.607280	13.731046	9.167694	H	2	YLD124_chi.LOD1	0.111619
	12630	N	2.243931	9.521285	7.847498	N	2	YLD124_chi.LOD1	-0.506176
	12631	C	3.335448	10.277749	8.240074	C	2	YLD124_chi.LOD1	0.404469
	12632	C	4.361559	9.734854	9.059874	C	2	YLD124_chi.LOD1	-0.281203
	12633	C	5.426953	10.504908	9.488050	C	2	YLD124_chi.LOD1	-0.112562
	12634	C	5.563466	11.863029	9.127192	C	2	YLD124_chi.LOD1	0.131862
	12635	C	4.556877	12.389466	8.291797	C	2	YLD124_chi.LOD1	-0.140167
	12636	C	3.481322	11.634498	7.855140	C	2	YLD124_chi.LOD1	-0.26473
	12637	H	4.326622	8.696596	9.365308	H	2	YLD124_chi.LOD1	0.177954
	12638	H	6.176657	10.034217	10.117261	H	2	YLD124_chi.LOD1	0.098859
	12639	H	4.624218	13.428851	7.977558	H	2	YLD124_chi.LOD1	0.103807
	12640	H	2.750662	12.105796	7.209685	H	2	YLD124_chi.LOD1	0.161189
	12641	C	8.723216	13.276506	10.832568	C	2	YLD124_chi.LOD1	0.100982
	12642	C	9.656730	12.822469	11.736502	C	2	YLD124_chi.LOD1	-0.303623
	12643	C	8.790860	14.708109	10.343647	C	2	YLD124_chi.LOD1	0.096207
	12644	H	9.597219	11.786476	12.066740	H	2	YLD124_chi.LOD1	0.124941
	12645	C	10.191401	15.351315	10.472852	C	2	YLD124_chi.LOD1	0.409462
	12646	H	8.469115	14.763063	9.296746	H	2	YLD124_chi.LOD1	-0.020765
	12647	C	10.728638	15.087786	11.899054	C	2	YLD124_chi.LOD1	-0.014279
	12648	H	10.108372	15.646115	12.617306	H	2	YLD124_chi.LOD1	-0.02177
	12649	C	10.698747	13.625288	12.289038	C	2	YLD124_chi.LOD1	0.179445
	12650	C	11.499141	12.952748	13.158584	C	2	YLD124_chi.LOD1	-0.27725
	12651	H	11.361478	11.893599	13.375618	H	2	YLD124_chi.LOD1	0.132087
	12652	C	12.559728	13.603641	13.828490	C	2	YLD124_chi.LOD1	0.141075
	12653	C	13.392278	12.958533	14.720254	C	2	YLD124_chi.LOD1	-0.327608
	12654	H	12.712426	14.660412	13.642565	H	2	YLD124_chi.LOD1	-0.027316
	12655	C	14.462815	13.526721	15.444282	C	2	YLD124_chi.LOD1	0.260653
	12656	C	15.238953	12.867175	16.390670	C	2	YLD124_chi.LOD1	-0.287606
	12657	C	14.992962	14.960670	15.359984	C	2	YLD124_chi.LOD1	-0.056548
	12658	C	16.200804	13.784834	16.939876	C	2	YLD124_chi.LOD1	0.509074
	12659	C	15.056448	11.505317	16.740874	C	2	YLD124_chi.LOD1	0.396907
	12660	O	16.031997	15.005584	16.377486	O	2	YLD124_chi.LOD1	-0.366332
	12661	C	14.011340	16.144783	15.651607	C	2	YLD124_chi.LOD1	0.253806
	12662	C	15.817258	15.309649	13.992336	C	2	YLD124_chi.LOD1	0.598114
	12663	C	17.180252	13.630895	17.896085	C	2	YLD124_chi.LOD1	-0.43234
	12664	N	14.827801	10.385400	16.964559	N	2	YLD124_chi.LOD1	-0.430249
	12665	C	17.419564	12.388398	18.550800	C	2	YLD124_chi.LOD1	0.437474
	12666	C	17.998710	14.740446	18.262891	C	2	YLD124_chi.LOD1	0.49223
	12667	N	17.648463	11.392985	19.110546	N	2	YLD124_chi.LOD1	-0.451871
	12668	N	18.672677	15.637879	18.573401	N	2	YLD124_chi.LOD1	-0.482758
	12669	H	13.210838	11.903086	14.915853	H	2	YLD124_chi.LOD1	0.157364
	12670	H	11.740627	15.497083	11.984677	H	2	YLD124_chi.LOD1	0.040059
	12671	H	8.063411	15.306777	10.913828	H	2	YLD124_chi.LOD1	-0.024244
	12672	C	2.117544	8.143632	8.166626	C	2	YLD124_chi.LOD1	0.240322
	12673	C	1.233052	10.027117	6.971615	C	2	YLD124_chi.LOD1	0.113854
	12674	C	1.442381	9.914578	5.568674	C	2	YLD124_chi.LOD1	0.29958
	12675	C	2.884577	7.202319	7.422901	C	2	YLD124_chi.LOD1	0.285774
	12676	O	4.156250	7.610470	7.242530	O	2	YLD124_chi.LOD1	-0.61175
	12677	O	2.753440	9.799740	5.279720	O	2	YLD124_chi.LOD1	-0.599726
	12678	C	3.335918	9.146778	2.562107	C	2	YLD124_chi.LOD1	0.275329
	12679	C	6.073277	5.780854	8.602020	C	2	YLD124_chi.LOD1	0.358728
	12680	C	6.053542	4.259390	8.335233	C	2	YLD124_chi.LOD1	-0.337707
	12681	H	6.782931	3.964711	7.570481	H	2	YLD124_chi.LOD1	0.059176
	12682	H	6.305103	3.708008	9.252608	H	2	YLD124_chi.LOD1	0.075606
	12683	H	5.066259	3.909726	8.009094	H	2	YLD124_chi.LOD1	0.056098
	12684	C	3.314414	7.725281	3.166291	C	2	YLD124_chi.LOD1	-0.311529
	12685	H	3.174076	6.977310	2.372816	H	2	YLD124_chi.LOD1	0.071087
	12686	H	4.252184	7.478896	3.679833	H	2	YLD124_chi.LOD1	0.058721
	12687	H	2.494802	7.592495	3.883426	H	2	YLD124_chi.LOD1	0.056179
	12688	C	5.062569	6.111783	9.721669	C	2	YLD124_chi.LOD1	-0.279876
	12689	H	5.027858	7.187306	9.932186	H	2	YLD124_chi.LOD1	0.048405
	12690	H	4.046171	5.789942	9.465417	H	2	YLD124_chi.LOD1	0.047411
	12691	H	5.341886	5.599790	10.653896	H	2	YLD124_chi.LOD1	0.054899
	12692	C	7.486968	6.185481	9.073651	C	2	YLD124_chi.LOD1	-0.273001
	12693	H	7.762906	5.624672	9.978478	H	2	YLD124_chi.LOD1	0.0526
	12694	H	8.253997	5.976358	8.317626	H	2	YLD124_chi.LOD1	0.034813
	12695	H	7.545115	7.251166	9.325997	H	2	YLD124_chi.LOD1	0.061699
	12696	C	1.997960	9.409821	1.837407	C	2	YLD124_chi.LOD1	-0.202774
	12697	H	1.139266	9.323892	2.514801	H	2	YLD124_chi.LOD1	0.027959
	12698	H	1.972567	10.408610	1.387632	H	2	YLD124_chi.LOD1	0.030756
	12699	H	1.851015	8.676725	1.031126	H	2	YLD124_chi.LOD1	0.045471
	12700	C	4.486986	9.243785	1.537261	C	2	YLD124_chi.LOD1	-0.266625
	12701	H	5.461103	9.028458	1.993376	H	2	YLD124_chi.LOD1	0.041283
	12702	H	4.338813	8.514877	0.727478	H	2	YLD124_chi.LOD1	0.059445
	12703	H	4.540485	10.239628	1.083558	H	2	YLD124_chi.LOD1	0.054675
	12704	C	2.900747	12.068265	3.513988	C	2	YLD124_chi.LOD1	-0.410828
	12705	H	1.805011	12.059822	3.519743	H	2	YLD124_chi.LOD1	0.093855
	12706	H	3.230136	12.846872	4.213019	H	2	YLD124_chi.LOD1	0.090546
	12707	H	3.226216	12.376936	2.513142	H	2	YLD124_chi.LOD1	0.070213
	12708	C	5.362606	10.638633	4.400994	C	2	YLD124_chi.LOD1	-0.460074
	12709	H	5.480318	11.143743	5.367551	H	2	YLD124_chi.LOD1	0.099819
	12710	H	5.878785	9.674349	4.466052	H	2	YLD124_chi.LOD1	0.10243
	12711	H	5.887271	11.248019	3.655284	H	2	YLD124_chi.LOD1	0.086844
	12712	C	5.173733	5.582048	5.646977	C	2	YLD124_chi.LOD1	-0.477029
	12713	H	4.395907	5.990422	4.992461	H	2	YLD124_chi.LOD1	0.107463
	12714	H	6.059368	5.394383	5.028947	H	2	YLD124_chi.LOD1	0.106999
	12715	H	4.820508	4.615314	6.024702	H	2	YLD124_chi.LOD1	0.090486
	12716	C	6.921061	7.868043	6.481293	C	2	YLD124_chi.LOD1	-0.470103
	12717	H	6.643704	8.912332	6.670291	H	2	YLD124_chi.LOD1	0.112461
	12718	H	7.871912	7.677994	6.992338	H	2	YLD124_chi.LOD1	0.098066
	12719	H	7.106102	7.772618	5.404675	H	2	YLD124_chi.LOD1	0.083138
	12720	Si	5.578190	6.735180	7.003600	Si	2	YLD124_chi.LOD1	0.770043
	12721	Si	3.595110	10.432400	3.961540	Si	2	YLD124_chi.LOD1	0.73989
	12722	H	2.876831	6.213158	7.903426	H	2	YLD124_chi.LOD1	-0.017464
	12723	H	0.285721	9.548169	7.235020	H	2	YLD124_chi.LOD1	0.058354
	12724	H	0.908490	9.023756	5.208060	H	2	YLD124_chi.LOD1	-0.04034
	12725	H	1.024965	10.786026	5.042219	H	2	YLD124_chi.LOD1	-0.007901
	12726	H	1.111385	11.092364	7.194248	H	2	YLD124_chi.LOD1	0.028132
	12727	H	2.426417	8.020842	9.209706	H	2	YLD124_chi.LOD1	-0.011538
	12728	H	1.057520	7.877018	8.127642	H	2	YLD124_chi.LOD1	0.020652
	12729	H	2.395254	7.095125	6.444839	H	2	YLD124_chi.LOD1	-0.064856
	12730	C	11.094123	14.714312	9.429182	C	2	YLD124_chi.LOD1	-0.299384
	12731	H	10.731932	14.923021	8.415383	H	2	YLD124_chi.LOD1	0.066854
	12732	H	12.091557	15.160024	9.523664	H	2	YLD124_chi.LOD1	0.072315
	12733	H	11.201216	13.629823	9.530357	H	2	YLD124_chi.LOD1	0.027971
	12734	C	10.017002	16.820998	10.256405	C	2	YLD124_chi.LOD1	-0.427943
	12735	H	9.619005	17.040763	9.258330	H	2	YLD124_chi.LOD1	0.089807
	12736	H	9.351200	17.286215	10.993585	H	2	YLD124_chi.LOD1	0.091303
	12737	H	10.997458	17.305698	10.336479	H	2	YLD124_chi.LOD1	0.089757
	12738	C	13.179456	15.928376	16.760542	C	2	YLD124_chi.LOD1	-0.158763
	12739	C	13.886814	17.342587	14.936165	C	2	YLD124_chi.LOD1	-0.147279
	12740	C	12.240339	16.881961	17.143038	C	2	YLD124_chi.LOD1	-0.065518
	12741	H	13.268687	15.008555	17.330622	H	2	YLD124_chi.LOD1	0.080042
	12742	C	12.937374	18.293257	15.317387	C	2	YLD124_chi.LOD1	-0.090746
	12743	H	14.522789	17.553637	14.086425	H	2	YLD124_chi.LOD1	0.09871
	12744	C	12.113385	18.068935	16.418617	C	2	YLD124_chi.LOD1	-0.09866
	12745	H	11.608401	16.696297	18.006756	H	2	YLD124_chi.LOD1	0.104949
	12746	H	11.380253	18.814184	16.714318	H	2	YLD124_chi.LOD1	0.102095
	12747	H	12.853823	19.216766	14.751383	H	2	YLD124_chi.LOD1	0.105434
	12748	F	15.433068	14.407713	13.076372	F	2	YLD124_chi.LOD1	-0.19867
	12749	F	17.141008	15.172562	14.171000	F	2	YLD124_chi.LOD1	-0.154403
	12750	F	15.597422	16.540382	13.477844	F	2	YLD124_chi.LOD1	-0.186491
	12751	C	-5.443018	9.017184	20.594481	C	1	YLD124.LOD1	-0.158041
	12752	C	-6.693902	8.824637	20.087248	C	1	YLD124.LOD1	-0.174247
	12753	H	-7.135661	9.605790	19.470524	H	1	YLD124.LOD1	0.11023
	12754	H	-5.015834	8.236379	21.221554	H	1	YLD124.LOD1	0.116594
	12755	N	-1.939324	13.474717	19.945200	N	1	YLD124.LOD1	-0.477879
	12756	C	-2.790049	12.390878	20.083426	C	1	YLD124.LOD1	0.383639
	12757	C	-4.068572	12.364649	19.463288	C	1	YLD124.LOD1	-0.278193
	12758	C	-4.928023	11.294043	19.625444	C	1	YLD124.LOD1	-0.102205
	12759	C	-4.584381	10.167188	20.403558	C	1	YLD124.LOD1	0.126725
	12760	C	-3.310950	10.193484	21.008552	C	1	YLD124.LOD1	-0.148338
	12761	C	-2.436772	11.256879	20.857687	C	1	YLD124.LOD1	-0.248652
	12762	H	-4.394609	13.191700	18.845091	H	1	YLD124.LOD1	0.176041
	12763	H	-5.892786	11.334648	19.128435	H	1	YLD124.LOD1	0.098595
	12764	H	-2.998291	9.345301	21.613892	H	1	YLD124.LOD1	0.105176
	12765	H	-1.470656	11.201050	21.343605	H	1	YLD124.LOD1	0.157607
	12766	C	-7.527269	7.672178	20.296519	C	1	YLD124.LOD1	0.13089
	12767	C	-8.788067	7.644075	19.744655	C	1	YLD124.LOD1	-0.298955
	12768	C	-7.050435	6.500817	21.129552	C	1	YLD124.LOD1	0.000678
	12769	H	-9.107892	8.491557	19.140187	H	1	YLD124.LOD1	0.128536
	12770	C	-7.780554	5.172417	20.821574	C	1	YLD124.LOD1	0.312314
	12771	H	-5.972532	6.354511	20.991759	H	1	YLD124.LOD1	0.009572
	12772	C	-9.304989	5.433698	20.817621	C	1	YLD124.LOD1	0.132423
	12773	H	-9.620622	5.687025	21.841646	H	1	YLD124.LOD1	-0.011706
	12774	C	-9.714180	6.570853	19.905971	C	1	YLD124.LOD1	0.094029
	12775	C	-10.881402	6.752481	19.230446	C	1	YLD124.LOD1	-0.194272
	12776	H	-11.068921	7.637473	18.622590	H	1	YLD124.LOD1	0.118653
	12777	C	-11.913207	5.788247	19.280909	C	1	YLD124.LOD1	0.029031
	12778	C	-13.097681	5.916846	18.584534	C	1	YLD124.LOD1	-0.298661
	12779	H	-11.758348	4.903800	19.887730	H	1	YLD124.LOD1	0.063317
	12780	C	-14.160372	4.988358	18.544372	C	1	YLD124.LOD1	0.24754
	12781	C	-15.304656	5.100387	17.762504	C	1	YLD124.LOD1	-0.281071
	12782	C	-14.281611	3.672028	19.317324	C	1	YLD124.LOD1	-0.098074
	12783	C	-16.123443	3.932622	17.948755	C	1	YLD124.LOD1	0.526995
	12784	C	-15.564265	6.202001	16.908381	C	1	YLD124.LOD1	0.389724
	12785	O	-15.508024	3.082164	18.805866	O	1	YLD124.LOD1	-0.351072
	12786	C	-14.601725	3.837231	20.905042	C	1	YLD124.LOD1	0.617997
	12787	C	-13.152735	2.601787	19.157871	C	1	YLD124.LOD1	0.253109
	12788	C	-17.335406	3.560667	17.410370	C	1	YLD124.LOD1	-0.451385
	12789	N	-15.687102	7.143510	16.233837	N	1	YLD124.LOD1	-0.428829
	12790	F	-15.617861	4.706679	21.011368	F	1	YLD124.LOD1	-0.200469
	12791	F	-14.954064	2.712646	21.548008	F	1	YLD124.LOD1	-0.158364
	12792	F	-13.538182	4.365076	21.551057	F	1	YLD124.LOD1	-0.193377
	12793	C	-12.032101	3.092906	18.471544	C	1	YLD124.LOD1	-0.158716
	12794	C	-13.173787	1.255854	19.544792	C	1	YLD124.LOD1	-0.162688
	12795	C	-18.046744	4.383643	16.490326	C	1	YLD124.LOD1	0.447489
	12796	C	-17.921777	2.310808	17.770352	C	1	YLD124.LOD1	0.491336
	12797	H	-12.004546	4.132204	18.157994	H	1	YLD124.LOD1	0.085247
	12798	C	-10.952952	2.262188	18.184133	C	1	YLD124.LOD1	-0.074329
	12799	C	-12.084851	0.427216	19.263058	C	1	YLD124.LOD1	-0.055824
	12800	H	-14.028403	0.836090	20.059220	H	1	YLD124.LOD1	0.099228
	12801	N	-18.660878	5.024244	15.735996	N	1	YLD124.LOD1	-0.454587
	12802	N	-18.410750	1.292573	18.053425	N	1	YLD124.LOD1	-0.481156
	12803	H	-10.096225	2.661083	17.648720	H	1	YLD124.LOD1	0.111202
	12804	C	-10.973954	0.924237	18.584017	C	1	YLD124.LOD1	-0.106678
	12805	H	-12.117497	-0.614781	19.568799	H	1	YLD124.LOD1	0.095951
	12806	H	-10.132302	0.274097	18.362016	H	1	YLD124.LOD1	0.103827
	12807	H	-13.236032	6.805401	17.970946	H	1	YLD124.LOD1	0.159396
	12808	H	-9.828461	4.508557	20.555237	H	1	YLD124.LOD1	-0.052081
	12809	H	-7.187224	6.749639	22.193438	H	1	YLD124.LOD1	-0.003289
	12810	C	-2.223677	14.579152	19.100983	C	1	YLD124.LOD1	0.198954
	12811	C	-0.630110	13.492864	20.514855	C	1	YLD124.LOD1	0.115128
	12812	C	0.455889	12.828885	19.865011	C	1	YLD124.LOD1	0.306486
	12813	C	-1.725745	14.541689	17.767968	C	1	YLD124.LOD1	0.28632
	12814	O	-1.161990	13.348000	17.499600	O	1	YLD124.LOD1	-0.606883
	12815	O	0.439533	11.489100	20.005100	O	1	YLD124.LOD1	-0.600198
	12816	C	1.001060	8.802451	20.704766	C	1	YLD124.LOD1	0.267162
	12817	C	-1.752185	10.922118	15.879905	C	1	YLD124.LOD1	0.369124
	12818	C	-1.439039	10.256388	14.521223	C	1	YLD124.LOD1	-0.324271
	12819	H	-0.375065	10.009824	14.416501	H	1	YLD124.LOD1	0.053925
	12820	H	-2.000719	9.316626	14.419877	H	1	YLD124.LOD1	0.070181
	12821	H	-1.720222	10.893687	13.674105	H	1	YLD124.LOD1	0.052098
	12822	C	1.644705	7.881156	21.764662	C	1	YLD124.LOD1	-0.316887
	12823	H	1.553764	6.829257	21.458200	H	1	YLD124.LOD1	0.07213
	12824	H	2.713891	8.087762	21.898500	H	1	YLD124.LOD1	0.059956
	12825	H	1.159842	7.975569	22.744280	H	1	YLD124.LOD1	0.057948
	12826	C	-3.267622	11.205211	15.965819	C	1	YLD124.LOD1	-0.260833
	12827	H	-3.537552	11.688329	16.912288	H	1	YLD124.LOD1	0.041714
	12828	H	-3.608877	11.855877	15.151931	H	1	YLD124.LOD1	0.041636
	12829	H	-3.838459	10.267918	15.895813	H	1	YLD124.LOD1	0.048242
	12830	C	-1.361989	9.946990	17.011802	C	1	YLD124.LOD1	-0.256632
	12831	H	-1.905474	8.997220	16.902475	H	1	YLD124.LOD1	0.046696
	12832	H	-0.291111	9.709275	17.004953	H	1	YLD124.LOD1	0.030906
	12833	H	-1.611184	10.347580	18.001862	H	1	YLD124.LOD1	0.051975
	12834	C	-0.490450	8.432609	20.551955	C	1	YLD124.LOD1	-0.203727
	12835	H	-1.036288	8.533728	21.498146	H	1	YLD124.LOD1	0.027457
	12836	H	-0.989062	9.063308	19.807611	H	1	YLD124.LOD1	0.031775
	12837	H	-0.592521	7.387098	20.227281	H	1	YLD124.LOD1	0.046776
	12838	C	1.711853	8.589007	19.350504	C	1	YLD124.LOD1	-0.249027
	12839	H	2.785686	8.804506	19.413287	H	1	YLD124.LOD1	0.037596
	12840	H	1.608344	7.543506	19.026112	H	1	YLD124.LOD1	0.055765
	12841	H	1.286799	9.225422	18.566463	H	1	YLD124.LOD1	0.04836
	12842	C	2.923281	11.150135	21.421006	C	1	YLD124.LOD1	-0.409962
	12843	H	3.486164	10.972656	20.497738	H	1	YLD124.LOD1	0.090944
	12844	H	3.004406	12.217619	21.660014	H	1	YLD124.LOD1	0.090896
	12845	H	3.424754	10.601493	22.227579	H	1	YLD124.LOD1	0.069902
	12846	C	0.300897	10.969409	22.834212	C	1	YLD124.LOD1	-0.458602
	12847	H	0.362135	12.030333	23.106062	H	1	YLD124.LOD1	0.097974
	12848	H	-0.760108	10.702073	22.775203	H	1	YLD124.LOD1	0.103309
	12849	H	0.742731	10.399561	23.660714	H	1	YLD124.LOD1	0.085827
	12850	C	-1.332424	13.792113	14.771543	C	1	YLD124.LOD1	-0.493974
	12851	H	-2.387228	14.061531	14.894047	H	1	YLD124.LOD1	0.11158
	12852	H	-0.745017	14.713828	14.854192	H	1	YLD124.LOD1	0.113577
	12853	H	-1.200788	13.403279	13.755139	H	1	YLD124.LOD1	0.09477
	12854	C	1.009036	12.309854	15.919803	C	1	YLD124.LOD1	-0.483575
	12855	H	1.552951	13.256066	16.028807	H	1	YLD124.LOD1	0.116965
	12856	H	1.388022	11.618760	16.681217	H	1	YLD124.LOD1	0.100121
	12857	H	1.275430	11.893885	14.940791	H	1	YLD124.LOD1	0.088084
	12858	Si	-0.799644	12.590200	16.036900	Si	1	YLD124.LOD1	0.763339
	12859	Si	1.173430	10.630400	21.258600	Si	1	YLD124.LOD1	0.748472
	12860	H	-2.540545	14.734364	17.054667	H	1	YLD124.LOD1	-0.009815
	12861	H	-0.358844	14.534302	20.709799	H	1	YLD124.LOD1	0.057511
	12862	H	0.354243	13.091334	18.802141	H	1	YLD124.LOD1	-0.045737
	12863	H	1.423885	13.221296	20.211163	H	1	YLD124.LOD1	-0.011652
	12864	H	-0.690357	13.002293	21.492015	H	1	YLD124.LOD1	0.023801
	12865	H	-3.313423	14.676558	19.052823	H	1	YLD124.LOD1	-0.001966
	12866	H	-1.856313	15.485041	19.590936	H	1	YLD124.LOD1	0.031172
	12867	H	-0.980953	15.339043	17.638110	H	1	YLD124.LOD1	-0.066029
	12868	C	-7.312950	4.687050	19.453850	C	1	YLD124.LOD1	-0.185058
	12869	H	-6.237616	4.472100	19.460113	H	1	YLD124.LOD1	0.04722
	12870	H	-7.838095	3.751924	19.225289	H	1	YLD124.LOD1	0.027573
	12871	H	-7.510070	5.389536	18.638110	H	1	YLD124.LOD1	0.00699
	12872	C	-7.429190	4.215682	21.913270	C	1	YLD124.LOD1	-0.347891
	12873	H	-6.350171	4.023531	21.955324	H	1	YLD124.LOD1	0.075067
	12874	H	-7.747070	4.564586	22.903405	H	1	YLD124.LOD1	0.071859
	12875	H	-7.929137	3.259378	21.717661	H	1	YLD124.LOD1	0.077505
	12876	C	-10.459695	16.373335	23.319051	C	2	YLD124.LOD1	-0.158041
	12877	C	-11.195943	17.347889	23.925066	C	2	YLD124.LOD1	-0.174247
	12878	H	-12.136890	17.653549	23.470212	H	2	YLD124.LOD1	0.11023
	12879	H	-9.513575	16.084790	23.773979	H	2	YLD124.LOD1	0.116594
	12880	N	-11.585267	13.448945	18.549556	N	2	YLD124.LOD1	-0.477879
	12881	C	-11.328934	14.152332	19.714498	C	2	YLD124.LOD1	0.383639
	12882	C	-12.230645	15.136075	20.203422	C	2	YLD124.LOD1	-0.278193
	12883	C	-11.959664	15.857281	21.351280	C	2	YLD124.LOD1	-0.102205
	12884	C	-10.783639	15.653346	22.105422	C	2	YLD124.LOD1	0.126725
	12885	C	-9.896981	14.669310	21.621847	C	2	YLD124.LOD1	-0.148338
	12886	C	-10.151302	13.937205	20.474197	C	2	YLD124.LOD1	-0.248652
	12887	H	-13.156525	15.338972	19.679913	H	2	YLD124.LOD1	0.176041
	12888	H	-12.686661	16.597556	21.672063	H	2	YLD124.LOD1	0.098595
	12889	H	-8.979211	14.471935	22.171709	H	2	YLD124.LOD1	0.105176
	12890	H	-9.428761	13.190033	20.170419	H	2	YLD124.LOD1	0.157607
	12891	C	-10.847691	18.050092	25.130092	C	2	YLD124.LOD1	0.13089
	12892	C	-11.682451	19.039843	25.597556	C	2	YLD124.LOD1	-0.298955
	12893	C	-9.570465	17.734453	25.880070	C	2	YLD124.LOD1	0.000678
	12894	H	-12.601175	19.244114	25.049730	H	2	YLD124.LOD1	0.128536
	12895	C	-9.599613	18.145176	27.371052	C	2	YLD124.LOD1	0.312314
	12896	H	-9.347664	16.663103	25.810528	H	2	YLD124.LOD1	0.009572
	12897	C	-10.111992	19.600833	27.474570	C	2	YLD124.LOD1	0.132423
	12898	H	-9.363379	20.269739	27.022277	H	2	YLD124.LOD1	-0.011706
	12899	C	-11.429727	19.822701	26.763223	C	2	YLD124.LOD1	0.094029
	12900	C	-12.420833	20.710332	27.048541	C	2	YLD124.LOD1	-0.194272
	12901	H	-13.318801	20.794658	26.436656	H	2	YLD124.LOD1	0.118653
	12902	C	-12.333855	21.568697	28.167719	C	2	YLD124.LOD1	0.029031
	12903	C	-13.330584	22.458766	28.512343	C	2	YLD124.LOD1	-0.298661
	12904	H	-11.446009	21.514600	28.786802	H	2	YLD124.LOD1	0.063317
	12905	C	-13.345753	23.320244	29.630663	C	2	YLD124.LOD1	0.24754
	12906	C	-14.402714	24.142123	30.005634	C	2	YLD124.LOD1	-0.281071
	12907	C	-12.238500	23.524769	30.668467	C	2	YLD124.LOD1	-0.098074
	12908	C	-14.065971	24.821072	31.228095	C	2	YLD124.LOD1	0.526995
	12909	C	-15.615412	24.238997	29.277310	C	2	YLD124.LOD1	0.389724
	12910	O	-12.837405	24.424696	31.640610	O	2	YLD124.LOD1	-0.351072
	12911	C	-10.954184	24.374912	30.141043	C	2	YLD124.LOD1	0.617997
	12912	C	-11.708645	22.281385	31.455070	C	2	YLD124.LOD1	0.253109
	12913	C	-14.758822	25.726131	32.001327	C	2	YLD124.LOD1	-0.451385
	12914	N	-16.574660	24.247799	28.616777	N	2	YLD124.LOD1	-0.428829
	12915	F	-11.432856	25.469719	29.531087	F	2	YLD124.LOD1	-0.200469
	12916	F	-10.092478	24.776193	31.089030	F	2	YLD124.LOD1	-0.158364
	12917	F	-10.258151	23.664185	29.225901	F	2	YLD124.LOD1	-0.193377
	12918	C	-12.144306	21.065298	30.907899	C	2	YLD124.LOD1	-0.158716
	12919	C	-10.948006	22.261130	32.630954	C	2	YLD124.LOD1	-0.162688
	12920	C	-16.061171	26.187598	31.653894	C	2	YLD124.LOD1	0.447489
	12921	C	-14.173899	26.235611	33.198766	C	2	YLD124.LOD1	0.491336
	12922	H	-12.741597	21.065255	30.001005	H	2	YLD124.LOD1	0.085247
	12923	C	-11.822113	19.855278	31.515599	C	2	YLD124.LOD1	-0.074329
	12924	C	-10.618404	21.044318	33.233057	C	2	YLD124.LOD1	-0.055824
	12925	H	-10.609818	23.179446	33.093049	H	2	YLD124.LOD1	0.099228
	12926	N	-17.125925	26.590498	31.407897	N	2	YLD124.LOD1	-0.454587
	12927	N	-13.709657	26.657794	34.179719	N	2	YLD124.LOD1	-0.481156
	12928	H	-12.172118	18.924865	31.077885	H	2	YLD124.LOD1	0.111202
	12929	C	-11.052243	19.840597	32.680737	C	2	YLD124.LOD1	-0.106678
	12930	H	-10.028844	21.045969	34.145591	H	2	YLD124.LOD1	0.095951
	12931	H	-10.798316	18.897343	33.156274	H	2	YLD124.LOD1	0.103827
	12932	H	-14.221354	22.495703	27.887584	H	2	YLD124.LOD1	0.159396
	12933	H	-10.179523	19.884882	28.529800	H	2	YLD124.LOD1	-0.052081
	12934	H	-8.735137	18.249056	25.380180	H	2	YLD124.LOD1	-0.003289
	12935	C	-12.804374	13.595967	17.840508	C	2	YLD124.LOD1	0.198954
	12936	C	-10.736444	12.415202	18.047130	C	2	YLD124.LOD1	0.115128
	12937	C	-11.145804	11.045322	18.043173	C	2	YLD124.LOD1	0.306486
	12938	C	-13.962913	12.992418	18.406005	C	2	YLD124.LOD1	0.28632
	12939	O	-13.635200	12.213000	19.454600	O	2	YLD124.LOD1	-0.606883
	12940	O	-11.947900	10.711000	17.013700	O	2	YLD124.LOD1	-0.600198
	12941	C	-12.931400	10.472383	14.368141	C	2	YLD124.LOD1	0.267162
	12942	C	-13.652829	10.797956	22.072599	C	2	YLD124.LOD1	0.369124
	12943	C	-14.529440	9.887664	22.961530	C	2	YLD124.LOD1	-0.324271
	12944	H	-14.730828	8.917940	22.489431	H	2	YLD124.LOD1	0.053925
	12945	H	-14.021343	9.684271	23.915142	H	2	YLD124.LOD1	0.070181
	12946	H	-15.494419	10.350106	23.201919	H	2	YLD124.LOD1	0.052098
	12947	C	-12.592563	10.020128	12.930401	C	2	YLD124.LOD1	-0.316887
	12948	H	-13.450985	10.194147	12.265939	H	2	YLD124.LOD1	0.07213
	12949	H	-11.742329	10.573061	12.511924	H	2	YLD124.LOD1	0.059956
	12950	H	-12.355048	8.950301	12.878294	H	2	YLD124.LOD1	0.057948
	12951	C	-13.385068	12.123827	22.817208	C	2	YLD124.LOD1	-0.260833
	12952	H	-12.772551	12.808931	22.219276	H	2	YLD124.LOD1	0.041714
	12953	H	-14.315505	12.645690	23.070546	H	2	YLD124.LOD1	0.041636
	12954	H	-12.849899	11.934601	23.759048	H	2	YLD124.LOD1	0.048242
	12955	C	-12.305097	10.089968	21.814351	C	2	YLD124.LOD1	-0.256632
	12956	H	-11.802746	9.865137	22.766446	H	2	YLD124.LOD1	0.046696
	12957	H	-12.430402	9.138786	21.282481	H	2	YLD124.LOD1	0.030906
	12958	H	-11.619540	10.714700	21.229108	H	2	YLD124.LOD1	0.051975
	12959	C	-14.151689	9.673351	14.875271	C	2	YLD124.LOD1	-0.203727
	12960	H	-13.963729	8.592566	14.871168	H	2	YLD124.LOD1	0.027457
	12961	H	-14.428398	9.962177	15.895298	H	2	YLD124.LOD1	0.031775
	12962	H	-15.021842	9.854988	14.228149	H	2	YLD124.LOD1	0.046776
	12963	C	-13.286385	11.975256	14.355113	C	2	YLD124.LOD1	-0.249027
	12964	H	-12.462347	12.587235	13.967889	H	2	YLD124.LOD1	0.037596
	12965	H	-14.157277	12.155789	13.708607	H	2	YLD124.LOD1	0.055765
	12966	H	-13.533677	12.340632	15.357990	H	2	YLD124.LOD1	0.04836
	12967	C	-9.943796	11.113757	14.986356	C	2	YLD124.LOD1	-0.409962
	12968	H	-10.157562	12.186031	14.913590	H	2	YLD124.LOD1	0.090944
	12969	H	-9.114548	10.987142	15.693141	H	2	YLD124.LOD1	0.090896
	12970	H	-9.584073	10.778502	14.005924	H	2	YLD124.LOD1	0.069902
	12971	C	-10.979148	8.386533	15.616517	C	2	YLD124.LOD1	-0.458602
	12972	H	-10.150212	8.221706	16.315738	H	2	YLD124.LOD1	0.097974
	12973	H	-11.825674	7.778857	15.955345	H	2	YLD124.LOD1	0.103309
	12974	H	-10.659533	7.998701	14.641591	H	2	YLD124.LOD1	0.085827
	12975	C	-16.104950	12.122946	20.703995	C	2	YLD124.LOD1	-0.493974
	12976	H	-15.902081	13.103781	21.147856	H	2	YLD124.LOD1	0.11158
	12977	H	-16.625443	12.292160	19.754315	H	2	YLD124.LOD1	0.113577
	12978	H	-16.792320	11.588454	21.369905	H	2	YLD124.LOD1	0.09477
	12979	C	-14.924515	9.639658	19.504900	C	2	YLD124.LOD1	-0.483575
	12980	H	-15.425462	9.861825	18.554775	H	2	YLD124.LOD1	0.116965
	12981	H	-14.026301	9.054103	19.278340	H	2	YLD124.LOD1	0.100121
	12982	H	-15.596975	8.994289	20.082616	H	2	YLD124.LOD1	0.088084
	12983	Si	-14.564100	11.187900	20.419700	Si	2	YLD124.LOD1	0.763339
	12984	Si	-11.420600	10.162000	15.507800	Si	2	YLD124.LOD1	0.748472
	12985	H	-14.656871	13.780339	18.733763	H	2	YLD124.LOD1	-0.009815
	12986	H	-10.544869	12.623970	16.990771	H	2	YLD124.LOD1	0.057511
	12987	H	-10.278689	10.369885	18.071454	H	2	YLD124.LOD1	-0.045737
	12988	H	-11.693289	10.919995	18.989417	H	2	YLD124.LOD1	-0.011652
	12989	H	-9.773540	12.511698	18.559611	H	2	YLD124.LOD1	0.023801
	12990	H	-12.988179	14.668430	17.716446	H	2	YLD124.LOD1	-0.001966
	12991	H	-12.668208	13.189911	16.834415	H	2	YLD124.LOD1	0.031172
	12992	H	-14.483845	12.391275	17.647976	H	2	YLD124.LOD1	-0.066029
	12993	C	-10.537049	17.190092	28.101805	C	2	YLD124.LOD1	-0.185058
	12994	H	-10.162132	16.160549	28.056379	H	2	YLD124.LOD1	0.04722
	12995	H	-10.571228	17.485733	29.157222	H	2	YLD124.LOD1	0.027573
	12996	H	-11.562976	17.190825	27.720693	H	2	YLD124.LOD1	0.00699
	12997	C	-8.196839	18.060265	27.876711	C	2	YLD124.LOD1	-0.347891
	12998	H	-7.796415	17.042122	27.799133	H	2	YLD124.LOD1	0.075067
	12999	H	-7.511663	18.732063	27.345326	H	2	YLD124.LOD1	0.071859
	13000	H	-8.187258	18.340691	28.936899	H	2	YLD124.LOD1	0.077505
	13001	C	0.911649	0.618868	17.434455	C	3	YLD124.LOD1	-0.158041
	13002	C	1.266052	1.912783	17.191034	C	3	YLD124.LOD1	-0.174247
	13003	H	0.681256	2.491332	16.477596	H	3	YLD124.LOD1	0.11023
	13004	H	1.511216	0.044534	18.138742	H	3	YLD124.LOD1	0.116594
	13005	N	-3.393989	-2.411814	15.233660	N	3	YLD124.LOD1	-0.477879
	13006	C	-2.361988	-1.663257	15.774200	C	3	YLD124.LOD1	0.383639
	13007	C	-2.152408	-0.307519	15.402809	C	3	YLD124.LOD1	-0.278193
	13008	C	-1.104658	0.429819	15.922135	C	3	YLD124.LOD1	-0.102205
	13009	C	-0.193228	-0.114248	16.853070	C	3	YLD124.LOD1	0.126725
	13010	C	-0.411278	-1.456527	17.226004	C	3	YLD124.LOD1	-0.148338
	13011	C	-1.454960	-2.210733	16.716437	C	3	YLD124.LOD1	-0.248652
	13012	H	-2.818170	0.177007	14.699617	H	3	YLD124.LOD1	0.176041
	13013	H	-0.995503	1.460176	15.596740	H	3	YLD124.LOD1	0.098595
	13014	H	0.261654	-1.918926	17.944999	H	3	YLD124.LOD1	0.105176
	13015	H	-1.565857	-3.232192	17.058397	H	3	YLD124.LOD1	0.157607
	13016	C	2.372591	2.615768	17.780816	C	3	YLD124.LOD1	0.13089
	13017	C	2.623738	3.915026	17.401596	C	3	YLD124.LOD1	-0.298955
	13018	C	3.276912	1.945426	18.793854	C	3	YLD124.LOD1	0.000678
	13019	H	1.955401	4.382352	16.679912	H	3	YLD124.LOD1	0.128536
	13020	C	4.035611	2.934210	19.709961	C	3	YLD124.LOD1	0.312314
	13021	H	2.696947	1.255477	19.418258	H	3	YLD124.LOD1	0.009572
	13022	C	4.686034	4.026812	18.829417	C	3	YLD124.LOD1	0.132423
	13023	H	5.474910	3.561726	18.218029	H	3	YLD124.LOD1	-0.011706
	13024	C	3.705917	4.703177	17.894770	C	3	YLD124.LOD1	0.094029
	13025	C	3.722891	5.972461	17.404629	C	3	YLD124.LOD1	-0.194272
	13026	H	2.967642	6.336152	16.708073	H	3	YLD124.LOD1	0.118653
	13027	C	4.727777	6.890084	17.785534	C	3	YLD124.LOD1	0.029031
	13028	C	4.762748	8.195478	17.339239	C	3	YLD124.LOD1	-0.298661
	13029	H	5.498597	6.551347	18.467848	H	3	YLD124.LOD1	0.063317
	13030	C	5.700862	9.187385	17.698513	C	3	YLD124.LOD1	0.24754
	13031	C	5.660838	10.520419	17.305232	C	3	YLD124.LOD1	-0.281071
	13032	C	6.931827	9.029058	18.595473	C	3	YLD124.LOD1	-0.098074
	13033	C	6.750270	11.230063	17.920309	C	3	YLD124.LOD1	0.526995
	13034	C	4.663056	11.054928	16.451295	C	3	YLD124.LOD1	0.389724
	13035	O	7.453868	10.381219	18.708391	O	3	YLD124.LOD1	-0.351072
	13036	C	8.173891	8.223905	17.917724	C	3	YLD124.LOD1	0.617997
	13037	C	6.736033	8.486414	20.048911	C	3	YLD124.LOD1	0.253109
	13038	C	7.144932	12.548133	17.857073	C	3	YLD124.LOD1	-0.451385
	13039	N	3.800379	11.402380	15.750150	N	3	YLD124.LOD1	-0.428829
	13040	F	8.366271	8.753442	16.700203	F	3	YLD124.LOD1	-0.200469
	13041	F	9.339142	8.285540	18.581524	F	3	YLD124.LOD1	-0.158364
	13042	F	7.861047	6.919015	17.755024	F	3	YLD124.LOD1	-0.193377
	13043	C	5.587350	7.694469	20.195250	C	3	YLD124.LOD1	-0.158716
	13044	C	7.503528	8.782442	21.182492	C	3	YLD124.LOD1	-0.162688
	13045	C	6.456873	13.513905	17.067370	C	3	YLD124.LOD1	0.447489
	13046	C	8.280710	12.988520	18.599791	C	3	YLD124.LOD1	0.491336
	13047	H	4.977709	7.463037	19.326923	H	3	YLD124.LOD1	0.085247
	13048	C	5.216390	7.202171	21.443164	C	3	YLD124.LOD1	-0.074329
	13049	C	7.133550	8.278792	22.431992	C	3	YLD124.LOD1	-0.055824
	13050	H	8.385627	9.405496	21.112414	H	3	YLD124.LOD1	0.099228
	13051	N	5.924175	14.335166	16.436253	N	3	YLD124.LOD1	-0.454587
	13052	N	9.204302	13.362222	19.202578	N	3	YLD124.LOD1	-0.481156
	13053	H	4.321464	6.593642	21.535710	H	3	YLD124.LOD1	0.111202
	13054	C	5.992863	7.489741	22.567822	C	3	YLD124.LOD1	-0.106678
	13055	H	7.738884	8.518822	23.301622	H	3	YLD124.LOD1	0.095951
	13056	H	5.706148	7.105582	23.542788	H	3	YLD124.LOD1	0.103827
	13057	H	3.976729	8.525441	16.662144	H	3	YLD124.LOD1	0.159396
	13058	H	5.187159	4.757213	19.472957	H	3	YLD124.LOD1	-0.052081
	13059	H	4.006109	1.322146	18.253231	H	3	YLD124.LOD1	-0.003289
	13060	C	-4.354145	-1.836838	14.363202	C	3	YLD124.LOD1	0.198954
	13061	C	-3.661313	-3.757353	15.630939	C	3	YLD124.LOD1	0.115128
	13062	C	-4.637299	-4.000141	16.642111	C	3	YLD124.LOD1	0.306486
	13063	C	-5.282789	-0.920709	14.933197	C	3	YLD124.LOD1	0.28632
	13064	O	-4.903910	-0.561087	16.174900	O	3	YLD124.LOD1	-0.606883
	13065	O	-5.751490	-3.266580	16.453800	O	3	YLD124.LOD1	-0.600198
	13066	C	-7.599187	-4.674737	18.074246	C	3	YLD124.LOD1	0.267162
	13067	C	-5.532265	0.151606	18.995154	C	3	YLD124.LOD1	0.369124
	13068	C	-5.937597	1.343364	19.891086	C	3	YLD124.LOD1	-0.324271
	13069	H	-6.919347	1.750707	19.618988	H	3	YLD124.LOD1	0.053925
	13070	H	-5.998814	1.025514	20.941863	H	3	YLD124.LOD1	0.070181
	13071	H	-5.210015	2.162612	19.843327	H	3	YLD124.LOD1	0.052098
	13072	C	-9.037131	-5.233144	18.157555	C	3	YLD124.LOD1	-0.316887
	13073	H	-9.197229	-5.725135	19.127603	H	3	YLD124.LOD1	0.07213
	13074	H	-9.793774	-4.443878	18.066422	H	3	YLD124.LOD1	0.059956
	13075	H	-9.236633	-5.980255	17.379298	H	3	YLD124.LOD1	0.057948
	13076	C	-4.162024	-0.386663	19.460749	C	3	YLD124.LOD1	-0.260833
	13077	H	-3.826873	-1.230354	18.845991	H	3	YLD124.LOD1	0.041714
	13078	H	-3.383836	0.384610	19.418378	H	3	YLD124.LOD1	0.041636
	13079	H	-4.219622	-0.735628	20.501989	H	3	YLD124.LOD1	0.048242
	13080	C	-6.586068	-0.966364	19.149946	C	3	YLD124.LOD1	-0.256632
	13081	H	-6.666328	-1.272946	20.203016	H	3	YLD124.LOD1	0.046696
	13082	H	-7.584548	-0.643628	18.830236	H	3	YLD124.LOD1	0.030906
	13083	H	-6.321556	-1.861442	18.574049	H	3	YLD124.LOD1	0.051975
	13084	C	-6.595199	-5.836322	18.239965	C	3	YLD124.LOD1	-0.203727
	13085	H	-6.729166	-6.606161	17.470002	H	3	YLD124.LOD1	0.027457
	13086	H	-5.558653	-5.485301	18.187054	H	3	YLD124.LOD1	0.031775
	13087	H	-6.734182	-6.323919	19.215597	H	3	YLD124.LOD1	0.046776
	13088	C	-7.384053	-3.659124	19.217514	C	3	YLD124.LOD1	-0.249027
	13089	H	-8.098539	-2.828197	19.166836	H	3	YLD124.LOD1	0.037596
	13090	H	-7.522180	-4.147844	20.192752	H	3	YLD124.LOD1	0.055765
	13091	H	-6.373921	-3.235319	19.196605	H	3	YLD124.LOD1	0.04836
	13092	C	-8.478482	-2.402309	16.129468	C	3	YLD124.LOD1	-0.409962
	13093	H	-8.399598	-1.673177	16.943658	H	3	YLD124.LOD1	0.090944
	13094	H	-8.265535	-1.876716	15.190515	H	3	YLD124.LOD1	0.090896
	13095	H	-9.522202	-2.736002	16.081076	H	3	YLD124.LOD1	0.069902
	13096	C	-7.526782	-4.983605	14.972712	C	3	YLD124.LOD1	-0.458602
	13097	H	-7.321693	-4.490878	14.014395	H	3	YLD124.LOD1	0.097974
	13098	H	-6.843610	-5.835727	15.061290	H	3	YLD124.LOD1	0.103309
	13099	H	-8.548233	-5.379549	14.918702	H	3	YLD124.LOD1	0.085827
	13100	C	-4.064581	1.963227	16.944384	C	3	YLD124.LOD1	-0.493974
	13101	H	-3.080241	1.548126	17.187225	H	3	YLD124.LOD1	0.11158
	13102	H	-4.031276	2.302859	15.902762	H	3	YLD124.LOD1	0.113577
	13103	H	-4.223119	2.844237	17.577064	H	3	YLD124.LOD1	0.09477
	13104	C	-6.984308	1.390158	16.564227	C	3	YLD124.LOD1	-0.483575
	13105	H	-6.906356	1.696370	15.513893	H	3	YLD124.LOD1	0.116965
	13106	H	-7.807188	0.670420	16.640632	H	3	YLD124.LOD1	0.100121
	13107	H	-7.273238	2.277619	17.139895	H	3	YLD124.LOD1	0.088084
	13108	Si	-5.383860	0.721317	17.159900	Si	3	YLD124.LOD1	0.763339
	13109	Si	-7.343690	-3.819910	16.376700	Si	3	YLD124.LOD1	0.748472
	13110	H	-5.375241	-0.025340	14.301067	H	3	YLD124.LOD1	-0.009815
	13111	H	-4.013201	-4.305879	14.752603	H	3	YLD124.LOD1	0.057511
	13112	H	-4.901419	-5.065709	16.703032	H	3	YLD124.LOD1	-0.045737
	13113	H	-4.171866	-3.719836	17.598994	H	3	YLD124.LOD1	-0.011652
	13114	H	-2.705015	-4.209740	15.913731	H	3	YLD124.LOD1	0.023801
	13115	H	-3.811471	-1.309955	13.571211	H	3	YLD124.LOD1	-0.001966
	13116	H	-4.902494	-2.645973	13.873040	H	3	YLD124.LOD1	0.031172
	13117	H	-6.271907	-1.397600	14.972825	H	3	YLD124.LOD1	-0.066029
	13118	C	3.026359	3.548337	20.673880	C	3	YLD124.LOD1	-0.185058
	13119	H	2.584207	2.781092	21.320737	H	3	YLD124.LOD1	0.04722
	13120	H	3.557556	4.260250	21.316910	H	3	YLD124.LOD1	0.027573
	13121	H	2.208779	4.085833	20.183537	H	3	YLD124.LOD1	0.00699
	13122	C	5.092980	2.152578	20.418182	C	3	YLD124.LOD1	-0.347891
	13123	H	4.664503	1.355495	21.037891	H	3	YLD124.LOD1	0.075067
	13124	H	5.814272	1.693049	19.731363	H	3	YLD124.LOD1	0.071859
	13125	H	5.645137	2.828567	21.082176	H	3	YLD124.LOD1	0.077505
	13126	C	-25.938665	22.529958	25.500972	C	4	YLD124.LOD1	-0.158041
	13127	C	-24.869597	22.731849	26.322803	C	4	YLD124.LOD1	-0.174247
	13128	H	-24.570021	23.753286	26.552190	H	4	YLD124.LOD1	0.11023
	13129	H	-26.221492	21.505105	25.266349	H	4	YLD124.LOD1	0.116594
	13130	N	-29.305986	26.373722	22.960563	N	4	YLD124.LOD1	-0.477879
	13131	C	-28.493439	25.448685	23.594299	C	4	YLD124.LOD1	0.383639
	13132	C	-27.419965	25.852690	24.433534	C	4	YLD124.LOD1	-0.278193
	13133	C	-26.592289	24.928139	25.042881	C	4	YLD124.LOD1	-0.102205
	13134	C	-26.769717	23.537443	24.876035	C	4	YLD124.LOD1	0.126725
	13135	C	-27.842173	23.141438	24.050593	C	4	YLD124.LOD1	-0.148338
	13136	C	-28.681454	24.052794	23.431888	C	4	YLD124.LOD1	-0.248652
	13137	H	-27.230608	26.903590	24.613079	H	4	YLD124.LOD1	0.176041
	13138	H	-25.787268	25.299560	25.670115	H	4	YLD124.LOD1	0.098595
	13139	H	-28.022792	22.079862	23.895551	H	4	YLD124.LOD1	0.105176
	13140	H	-29.491259	23.673539	22.821156	H	4	YLD124.LOD1	0.157607
	13141	C	-24.058315	21.710806	26.927576	C	4	YLD124.LOD1	0.13089
	13142	C	-22.984445	22.077876	27.706689	C	4	YLD124.LOD1	-0.298955
	13143	C	-24.352001	20.241930	26.704972	C	4	YLD124.LOD1	0.000678
	13144	H	-22.796711	23.139096	27.863098	H	4	YLD124.LOD1	0.128536
	13145	C	-23.780821	19.313727	27.802589	C	4	YLD124.LOD1	0.312314
	13146	H	-25.434078	20.081084	26.630770	H	4	YLD124.LOD1	0.009572
	13147	C	-22.299472	19.686188	28.045618	C	4	YLD124.LOD1	0.132423
	13148	H	-21.720638	19.430759	27.144433	H	4	YLD124.LOD1	-0.011706
	13149	C	-22.092737	21.157793	28.334239	C	4	YLD124.LOD1	0.094029
	13150	C	-21.132487	21.758353	29.088478	C	4	YLD124.LOD1	-0.194272
	13151	H	-21.071819	22.841149	29.196800	H	4	YLD124.LOD1	0.118653
	13152	C	-20.162839	20.997181	29.779358	C	4	YLD124.LOD1	0.029031
	13153	C	-19.193462	21.563766	30.581697	C	4	YLD124.LOD1	-0.298661
	13154	H	-20.192222	19.918461	29.679560	H	4	YLD124.LOD1	0.063317
	13155	C	-18.215877	20.881090	31.337537	C	4	YLD124.LOD1	0.24754
	13156	C	-17.307999	21.471649	32.209460	C	4	YLD124.LOD1	-0.281071
	13157	C	-17.953594	19.373095	31.382676	C	4	YLD124.LOD1	-0.098074
	13158	C	-16.517348	20.447326	32.837482	C	4	YLD124.LOD1	0.526995
	13159	C	-17.232305	22.869991	32.431689	C	4	YLD124.LOD1	0.389724
	13160	O	-16.925493	19.231049	32.400737	O	4	YLD124.LOD1	-0.351072
	13161	C	-17.228879	18.764197	30.058186	C	4	YLD124.LOD1	0.617997
	13162	C	-19.128353	18.418870	31.776050	C	4	YLD124.LOD1	0.253109
	13163	C	-15.501217	20.505677	33.765457	C	4	YLD124.LOD1	-0.451385
	13164	N	-17.248947	24.028402	32.551470	N	4	YLD124.LOD1	-0.428829
	13165	F	-16.184953	19.560245	29.781957	F	4	YLD124.LOD1	-0.200469
	13166	F	-16.769130	17.508013	30.171645	F	4	YLD124.LOD1	-0.158364
	13167	F	-18.067626	18.801743	28.998859	F	4	YLD124.LOD1	-0.193377
	13168	C	-20.388196	19.025760	31.664051	C	4	YLD124.LOD1	-0.158716
	13169	C	-19.046768	17.116513	32.284869	C	4	YLD124.LOD1	-0.162688
	13170	C	-15.017807	21.738277	34.291560	C	4	YLD124.LOD1	0.447489
	13171	C	-14.893549	19.302721	34.233645	C	4	YLD124.LOD1	0.491336
	13172	H	-20.466801	20.038006	31.278833	H	4	YLD124.LOD1	0.085247
	13173	C	-21.541969	18.346180	32.043836	C	4	YLD124.LOD1	-0.074329
	13174	C	-20.207720	16.433811	32.656224	C	4	YLD124.LOD1	-0.055824
	13175	H	-18.091327	16.622316	32.403650	H	4	YLD124.LOD1	0.099228
	13176	N	-14.593014	22.722261	34.747489	N	4	YLD124.LOD1	-0.454587
	13177	N	-14.390243	18.328788	34.626283	N	4	YLD124.LOD1	-0.481156
	13178	H	-22.507539	18.835145	31.952448	H	4	YLD124.LOD1	0.111202
	13179	C	-21.455650	17.042877	32.538217	C	4	YLD124.LOD1	-0.106678
	13180	H	-20.127101	15.424647	33.050421	H	4	YLD124.LOD1	0.095951
	13181	H	-22.354890	16.509820	32.834125	H	4	YLD124.LOD1	0.103827
	13182	H	-19.181592	22.647807	30.681055	H	4	YLD124.LOD1	0.159396
	13183	H	-21.899546	19.064775	28.853492	H	4	YLD124.LOD1	-0.052081
	13184	H	-23.935740	19.946015	25.729453	H	4	YLD124.LOD1	-0.003289
	13185	C	-29.174863	27.765536	23.197064	C	4	YLD124.LOD1	0.198954
	13186	C	-30.425198	25.995290	22.158052	C	4	YLD124.LOD1	0.115128
	13187	C	-31.702506	25.803969	22.765990	C	4	YLD124.LOD1	0.306486
	13188	C	-29.660921	28.317461	24.420327	C	4	YLD124.LOD1	0.28632
	13189	O	-31.001000	28.249800	24.539900	O	4	YLD124.LOD1	-0.606883
	13190	O	-31.695400	24.840500	23.707600	O	4	YLD124.LOD1	-0.600198
	13191	C	-32.172549	22.758857	25.568276	C	4	YLD124.LOD1	0.267162
	13192	C	-32.287644	30.384739	26.165630	C	4	YLD124.LOD1	0.369124
	13193	C	-33.305551	31.543335	26.071849	C	4	YLD124.LOD1	-0.324271
	13194	H	-34.314154	31.189247	25.824582	H	4	YLD124.LOD1	0.053925
	13195	H	-33.373854	32.068353	27.035487	H	4	YLD124.LOD1	0.070181
	13196	H	-33.017440	32.286723	25.318729	H	4	YLD124.LOD1	0.052098
	13197	C	-33.231790	21.784659	26.129869	C	4	YLD124.LOD1	-0.316887
	13198	H	-32.790358	21.157520	26.917597	H	4	YLD124.LOD1	0.07213
	13199	H	-34.084194	22.312032	26.576010	H	4	YLD124.LOD1	0.059956
	13200	H	-33.622077	21.108507	25.359056	H	4	YLD124.LOD1	0.057948
	13201	C	-30.905962	30.956755	26.550109	C	4	YLD124.LOD1	-0.260833
	13202	H	-30.145581	30.169928	26.619337	H	4	YLD124.LOD1	0.041714
	13203	H	-30.552649	31.696569	25.822042	H	4	YLD124.LOD1	0.041636
	13204	H	-30.955889	31.458378	27.527429	H	4	YLD124.LOD1	0.048242
	13205	C	-32.747903	29.408128	27.269582	C	4	YLD124.LOD1	-0.256632
	13206	H	-32.838376	29.933549	28.231423	H	4	YLD124.LOD1	0.046696
	13207	H	-33.726851	28.964367	27.050326	H	4	YLD124.LOD1	0.030906
	13208	H	-32.032996	28.589560	27.416693	H	4	YLD124.LOD1	0.051975
	13209	C	-30.995464	21.945760	24.986829	C	4	YLD124.LOD1	-0.203727
	13210	H	-31.321384	21.267036	24.188987	H	4	YLD124.LOD1	0.027457
	13211	H	-30.217523	22.598470	24.575466	H	4	YLD124.LOD1	0.031775
	13212	H	-30.534353	21.328532	25.771260	H	4	YLD124.LOD1	0.046776
	13213	C	-31.647896	23.651029	26.714392	C	4	YLD124.LOD1	-0.249027
	13214	H	-32.453685	24.225867	27.187430	H	4	YLD124.LOD1	0.037596
	13215	H	-31.186015	23.033045	27.497832	H	4	YLD124.LOD1	0.055765
	13216	H	-30.892132	24.360812	26.360214	H	4	YLD124.LOD1	0.04836
	13217	C	-34.346460	24.868038	24.830127	C	4	YLD124.LOD1	-0.409962
	13218	H	-34.037016	25.486377	25.680223	H	4	YLD124.LOD1	0.090944
	13219	H	-34.735072	25.539369	24.054548	H	4	YLD124.LOD1	0.090896
	13220	H	-35.183538	24.241375	25.161243	H	4	YLD124.LOD1	0.069902
	13221	C	-33.557884	22.851085	22.776680	C	4	YLD124.LOD1	-0.458602
	13222	H	-33.955643	23.491208	21.979660	H	4	YLD124.LOD1	0.097974
	13223	H	-32.755658	22.242275	22.344864	H	4	YLD124.LOD1	0.103309
	13224	H	-34.365655	22.172961	23.077851	H	4	YLD124.LOD1	0.085827
	13225	C	-31.488952	30.608444	23.173398	C	4	YLD124.LOD1	-0.493974
	13226	H	-30.470316	30.938566	23.404927	H	4	YLD124.LOD1	0.11158
	13227	H	-31.456326	30.091155	22.207591	H	4	YLD124.LOD1	0.113577
	13228	H	-32.112259	31.501918	23.051795	H	4	YLD124.LOD1	0.09477
	13229	C	-33.762066	28.812240	23.950783	C	4	YLD124.LOD1	-0.483575
	13230	H	-33.673878	28.287571	22.991623	H	4	YLD124.LOD1	0.116965
	13231	H	-34.182726	28.108115	24.677588	H	4	YLD124.LOD1	0.100121
	13232	H	-34.495171	29.616199	23.814156	H	4	YLD124.LOD1	0.088084
	13233	Si	-32.138100	29.493200	24.463400	Si	4	YLD124.LOD1	0.763339
	13234	Si	-32.964600	23.843000	24.199000	Si	4	YLD124.LOD1	0.748472
	13235	H	-29.188329	27.722793	25.215844	H	4	YLD124.LOD1	-0.009815
	13236	H	-30.508992	26.710958	21.335265	H	4	YLD124.LOD1	0.057511
	13237	H	-31.963511	26.768387	23.224987	H	4	YLD124.LOD1	-0.045737
	13238	H	-32.473667	25.576021	22.014874	H	4	YLD124.LOD1	-0.011652
	13239	H	-30.187341	25.028479	21.702168	H	4	YLD124.LOD1	0.023801
	13240	H	-28.120510	28.028073	23.060066	H	4	YLD124.LOD1	-0.001966
	13241	H	-29.727410	28.300248	22.419621	H	4	YLD124.LOD1	0.031172
	13242	H	-29.331112	29.357699	24.548712	H	4	YLD124.LOD1	-0.066029
	13243	C	-24.604345	19.523381	29.068561	C	4	YLD124.LOD1	-0.185058
	13244	H	-25.649645	19.232430	28.909563	H	4	YLD124.LOD1	0.04722
	13245	H	-24.194501	18.876825	29.853719	H	4	YLD124.LOD1	0.027573
	13246	H	-24.595417	20.551625	29.443274	H	4	YLD124.LOD1	0.00699
	13247	C	-23.877938	17.915007	27.288136	C	4	YLD124.LOD1	-0.347891
	13248	H	-24.916645	17.625797	27.087092	H	4	YLD124.LOD1	0.075067
	13249	H	-23.301754	17.759165	26.367878	H	4	YLD124.LOD1	0.071859
	13250	H	-23.484799	17.231509	28.050369	H	4	YLD124.LOD1	0.077505
	13251	C	18.444726	20.546690	24.122762	C	5	YLD124.LOD1	-0.158041
	13252	C	18.627993	21.896375	24.060845	C	5	YLD124.LOD1	-0.174247
	13253	H	18.793724	22.446073	24.986083	H	5	YLD124.LOD1	0.11023
	13254	H	18.265623	20.008198	23.193617	H	5	YLD124.LOD1	0.116594
	13255	N	18.443208	17.117024	28.683950	N	5	YLD124.LOD1	-0.477879
	13256	C	18.461559	17.955092	27.581746	C	5	YLD124.LOD1	0.383639
	13257	C	18.681567	19.352992	27.713474	C	5	YLD124.LOD1	-0.278193
	13258	C	18.671487	20.192298	26.615016	C	5	YLD124.LOD1	-0.102205
	13259	C	18.453110	19.711722	25.305545	C	5	YLD124.LOD1	0.126725
	13260	C	18.245312	18.322797	25.178879	C	5	YLD124.LOD1	-0.148338
	13261	C	18.251717	17.466668	26.267346	C	5	YLD124.LOD1	-0.248652
	13262	H	18.864180	19.789389	28.687482	H	5	YLD124.LOD1	0.176041
	13263	H	18.842830	21.251780	26.781066	H	5	YLD124.LOD1	0.098595
	13264	H	18.077907	17.903848	24.188898	H	5	YLD124.LOD1	0.105176
	13265	H	18.095951	16.409681	26.090916	H	5	YLD124.LOD1	0.157607
	13266	C	18.610809	22.702230	22.870567	C	5	YLD124.LOD1	0.13089
	13267	C	18.774894	24.064779	22.977762	C	5	YLD124.LOD1	-0.298955
	13268	C	18.394481	22.081136	21.506439	C	5	YLD124.LOD1	0.000678
	13269	H	18.939814	24.490422	23.966461	H	5	YLD124.LOD1	0.128536
	13270	C	18.930809	22.936476	20.334553	C	5	YLD124.LOD1	0.312314
	13271	H	18.860817	21.089604	21.465667	H	5	YLD124.LOD1	0.009572
	13272	C	18.431300	24.389488	20.511847	C	5	YLD124.LOD1	0.132423
	13273	H	17.338047	24.403492	20.381358	H	5	YLD124.LOD1	-0.011706
	13274	C	18.748404	24.968547	21.874124	C	5	YLD124.LOD1	0.094029
	13275	C	18.976767	26.263310	22.224906	C	5	YLD124.LOD1	-0.194272
	13276	H	19.167673	26.560668	23.255922	H	5	YLD124.LOD1	0.118653
	13277	C	18.983762	27.292821	21.256931	C	5	YLD124.LOD1	0.029031
	13278	C	19.244486	28.612653	21.564377	C	5	YLD124.LOD1	-0.298661
	13279	H	18.784748	27.027117	20.225304	H	5	YLD124.LOD1	0.063317
	13280	C	19.312268	29.694402	20.659811	C	5	YLD124.LOD1	0.24754
	13281	C	19.666438	30.999515	20.983069	C	5	YLD124.LOD1	-0.281071
	13282	C	19.037786	29.672233	19.153475	C	5	YLD124.LOD1	-0.098074
	13283	C	19.679170	31.798366	19.787054	C	5	YLD124.LOD1	0.526995
	13284	C	19.984602	31.421121	22.298933	C	5	YLD124.LOD1	0.389724
	13285	O	19.368273	31.020550	18.721689	O	5	YLD124.LOD1	-0.351072
	13286	C	17.467036	29.543310	18.745519	C	5	YLD124.LOD1	0.617997
	13287	C	19.855510	28.686353	18.256450	C	5	YLD124.LOD1	0.253109
	13288	C	19.962756	33.128518	19.569483	C	5	YLD124.LOD1	-0.451385
	13289	N	20.233526	31.671273	23.408887	N	5	YLD124.LOD1	-0.428829
	13290	F	16.796762	30.445672	19.477812	F	5	YLD124.LOD1	-0.200469
	13291	F	17.180759	29.768249	17.453356	F	5	YLD124.LOD1	-0.158364
	13292	F	16.992815	28.318599	19.065326	F	5	YLD124.LOD1	-0.193377
	13293	C	20.465820	27.656988	18.988565	C	5	YLD124.LOD1	-0.158716
	13294	C	20.098196	28.774204	16.879834	C	5	YLD124.LOD1	-0.162688
	13295	C	20.313693	34.016983	20.626481	C	5	YLD124.LOD1	0.447489
	13296	C	19.910565	33.661402	18.247032	C	5	YLD124.LOD1	0.491336
	13297	H	20.293635	27.580613	20.058020	H	5	YLD124.LOD1	0.085247
	13298	C	21.293737	26.731050	18.360512	C	5	YLD124.LOD1	-0.074329
	13299	C	20.922159	27.837492	16.250983	C	5	YLD124.LOD1	-0.055824
	13300	H	19.660356	29.565248	16.285062	H	5	YLD124.LOD1	0.099228
	13301	N	20.604797	34.776958	21.459692	N	5	YLD124.LOD1	-0.454587
	13302	N	19.874159	34.109115	17.172670	N	5	YLD124.LOD1	-0.481156
	13303	H	21.759515	25.943610	18.945965	H	5	YLD124.LOD1	0.111202
	13304	C	21.521571	26.815834	16.985243	C	5	YLD124.LOD1	-0.106678
	13305	H	21.101368	27.920466	15.182667	H	5	YLD124.LOD1	0.095951
	13306	H	22.166367	26.093528	16.492439	H	5	YLD124.LOD1	0.103827
	13307	H	19.452643	28.864090	22.602938	H	5	YLD124.LOD1	0.159396
	13308	H	18.843809	25.012504	19.711571	H	5	YLD124.LOD1	-0.052081
	13309	H	17.315413	21.912670	21.366056	H	5	YLD124.LOD1	-0.003289
	13310	C	18.744536	17.558585	29.998345	C	5	YLD124.LOD1	0.198954
	13311	C	18.280159	15.700923	28.588781	C	5	YLD124.LOD1	0.115128
	13312	C	19.414247	14.832096	28.602851	C	5	YLD124.LOD1	0.306486
	13313	C	20.092361	17.476304	30.452956	C	5	YLD124.LOD1	0.28632
	13314	O	20.967900	17.742300	29.464400	O	5	YLD124.LOD1	-0.606883
	13315	O	20.150600	14.887900	27.476100	O	5	YLD124.LOD1	-0.600198
	13316	C	22.116141	14.439213	25.486547	C	5	YLD124.LOD1	0.267162
	13317	C	23.938322	17.797441	29.639818	C	5	YLD124.LOD1	0.369124
	13318	C	25.146714	18.758091	29.574900	C	5	YLD124.LOD1	-0.324271
	13319	H	25.132180	19.496983	30.385842	H	5	YLD124.LOD1	0.053925
	13320	H	26.086079	18.194222	29.667388	H	5	YLD124.LOD1	0.070181
	13321	H	25.190028	19.304204	28.624791	H	5	YLD124.LOD1	0.052098
	13322	C	22.808625	13.369344	24.613458	C	5	YLD124.LOD1	-0.316887
	13323	H	23.570609	13.837108	23.973726	H	5	YLD124.LOD1	0.07213
	13324	H	23.316871	12.607423	25.217544	H	5	YLD124.LOD1	0.059956
	13325	H	22.101551	12.854995	23.950775	H	5	YLD124.LOD1	0.057948
	13326	C	24.048203	16.770002	28.492488	C	5	YLD124.LOD1	-0.260833
	13327	H	23.204186	16.070214	28.491708	H	5	YLD124.LOD1	0.041714
	13328	H	24.077451	17.255773	27.509937	H	5	YLD124.LOD1	0.041636
	13329	H	24.970345	16.179274	28.592330	H	5	YLD124.LOD1	0.048242
	13330	C	23.974271	17.045399	30.987950	C	5	YLD124.LOD1	-0.256632
	13331	H	24.921427	16.496839	31.094575	H	5	YLD124.LOD1	0.046696
	13332	H	23.896120	17.725149	31.845369	H	5	YLD124.LOD1	0.030906
	13333	H	23.165674	16.308818	31.067996	H	5	YLD124.LOD1	0.051975
	13334	C	21.451554	15.488305	24.568688	C	5	YLD124.LOD1	-0.203727
	13335	H	20.711497	15.034974	23.897682	H	5	YLD124.LOD1	0.027457
	13336	H	20.946125	16.269391	25.147385	H	5	YLD124.LOD1	0.031775
	13337	H	22.208042	15.976025	23.937199	H	5	YLD124.LOD1	0.046776
	13338	C	23.176561	15.140166	26.363467	C	5	YLD124.LOD1	-0.249027
	13339	H	23.705526	14.430748	27.011867	H	5	YLD124.LOD1	0.037596
	13340	H	23.932015	15.628495	25.731139	H	5	YLD124.LOD1	0.055765
	13341	H	22.728268	15.909199	27.002243	H	5	YLD124.LOD1	0.04836
	13342	C	21.520880	12.369753	27.740996	C	5	YLD124.LOD1	-0.409962
	13343	H	22.316488	12.807280	28.354460	H	5	YLD124.LOD1	0.090944
	13344	H	20.764450	11.958945	28.420907	H	5	YLD124.LOD1	0.090896
	13345	H	21.951295	11.524087	27.190874	H	5	YLD124.LOD1	0.069902
	13346	C	19.468861	12.797220	25.616546	C	5	YLD124.LOD1	-0.458602
	13347	H	18.693005	12.372859	26.265529	H	5	YLD124.LOD1	0.097974
	13348	H	18.982372	13.504570	24.935616	H	5	YLD124.LOD1	0.103309
	13349	H	19.868378	11.973781	25.012076	H	5	YLD124.LOD1	0.085827
	13350	C	22.190885	19.586637	27.799519	C	5	YLD124.LOD1	-0.493974
	13351	H	22.175108	18.848003	26.990584	H	5	YLD124.LOD1	0.11158
	13352	H	21.269767	20.176148	27.725653	H	5	YLD124.LOD1	0.113577
	13353	H	23.034570	20.263176	27.620391	H	5	YLD124.LOD1	0.09477
	13354	C	22.126572	20.034416	30.764813	C	5	YLD124.LOD1	-0.483575
	13355	H	21.182295	20.582560	30.660310	H	5	YLD124.LOD1	0.116965
	13356	H	22.149152	19.599548	31.770484	H	5	YLD124.LOD1	0.100121
	13357	H	22.936774	20.771342	30.710293	H	5	YLD124.LOD1	0.088084
	13358	Si	22.294900	18.783200	29.434400	Si	5	YLD124.LOD1	0.763339
	13359	Si	20.794200	13.601100	26.594600	Si	5	YLD124.LOD1	0.748472
	13360	H	20.271255	18.156968	31.298245	H	5	YLD124.LOD1	-0.009815
	13361	H	17.569791	15.391885	29.360826	H	5	YLD124.LOD1	0.057511
	13362	H	20.020540	15.163229	29.458225	H	5	YLD124.LOD1	-0.045737
	13363	H	19.115084	13.790453	28.793390	H	5	YLD124.LOD1	-0.011652
	13364	H	17.798699	15.494797	27.627095	H	5	YLD124.LOD1	0.023801
	13365	H	18.470613	18.617480	30.053685	H	5	YLD124.LOD1	-0.001966
	13366	H	18.082825	17.034080	30.693095	H	5	YLD124.LOD1	0.031172
	13367	H	20.248402	16.451834	30.818284	H	5	YLD124.LOD1	-0.066029
	13368	C	20.454002	22.881312	20.373171	C	5	YLD124.LOD1	-0.185058
	13369	H	20.813780	21.857043	20.218188	H	5	YLD124.LOD1	0.04722
	13370	H	20.839092	23.497343	19.551776	H	5	YLD124.LOD1	0.027573
	13371	H	20.892008	23.253605	21.304472	H	5	YLD124.LOD1	0.00699
	13372	C	18.373991	22.354952	19.076657	C	5	YLD124.LOD1	-0.347891
	13373	H	18.694745	21.316285	18.930852	H	5	YLD124.LOD1	0.075067
	13374	H	17.277687	22.375198	19.047363	H	5	YLD124.LOD1	0.071859
	13375	H	18.743580	22.938992	18.225170	H	5	YLD124.LOD1	0.077505
	13376	C	4.756773	13.379880	11.941432	C	6	YLD124.LOD1	-0.158041
	13377	C	4.964479	12.130538	12.446480	C	6	YLD124.LOD1	-0.174247
	13378	H	5.828974	11.960642	13.086388	H	6	YLD124.LOD1	0.11023
	13379	H	3.897602	13.536163	11.291229	H	6	YLD124.LOD1	0.116594
	13380	N	7.824121	18.130857	12.707356	N	6	YLD124.LOD1	-0.477879
	13381	C	7.077372	16.976666	12.540758	C	6	YLD124.LOD1	0.383639
	13382	C	7.448203	15.754128	13.163467	C	6	YLD124.LOD1	-0.278193
	13383	C	6.717456	14.596108	12.973349	C	6	YLD124.LOD1	-0.102205
	13384	C	5.562095	14.562579	12.162565	C	6	YLD124.LOD1	0.126725
	13385	C	5.192550	15.780219	11.555009	C	6	YLD124.LOD1	-0.148338
	13386	C	5.912034	16.949923	11.733595	C	6	YLD124.LOD1	-0.248652
	13387	H	8.318707	15.708564	13.805830	H	6	YLD124.LOD1	0.176041
	13388	H	7.053610	13.692904	13.474004	H	6	YLD124.LOD1	0.098595
	13389	H	4.306019	15.806216	10.924935	H	6	YLD124.LOD1	0.105176
	13390	H	5.560732	17.849420	11.243590	H	6	YLD124.LOD1	0.157607
	13391	C	4.149184	10.971083	12.206866	C	6	YLD124.LOD1	0.13089
	13392	C	4.514417	9.765163	12.761227	C	6	YLD124.LOD1	-0.298955
	13393	C	2.910234	11.049596	11.339548	C	6	YLD124.LOD1	0.000678
	13394	H	5.402623	9.732163	13.390429	H	6	YLD124.LOD1	0.128536
	13395	C	1.880774	9.927668	11.611683	C	6	YLD124.LOD1	0.312314
	13396	H	2.419900	12.021601	11.470116	H	6	YLD124.LOD1	0.009572
	13397	C	2.620138	8.569256	11.627319	C	6	YLD124.LOD1	0.132423
	13398	H	2.990187	8.359025	10.611793	H	6	YLD124.LOD1	-0.011706
	13399	C	3.802699	8.543202	12.572060	C	6	YLD124.LOD1	0.094029
	13400	C	4.332698	7.492795	13.255804	C	6	YLD124.LOD1	-0.194272
	13401	H	5.213568	7.597104	13.889088	H	6	YLD124.LOD1	0.118653
	13402	C	3.755139	6.205269	13.180839	C	6	YLD124.LOD1	0.029031
	13403	C	4.239952	5.121238	13.883896	C	6	YLD124.LOD1	-0.298661
	13404	H	2.885302	6.070218	12.548697	H	6	YLD124.LOD1	0.063317
	13405	C	3.703664	3.815432	13.900622	C	6	YLD124.LOD1	0.24754
	13406	C	4.157445	2.763529	14.688553	C	6	YLD124.LOD1	-0.281071
	13407	C	2.519044	3.280713	13.090913	C	6	YLD124.LOD1	-0.098074
	13408	C	3.322326	1.612776	14.471477	C	6	YLD124.LOD1	0.526995
	13409	C	5.259677	2.867947	15.574363	C	6	YLD124.LOD1	0.389724
	13410	O	2.342868	1.926215	13.588825	O	6	YLD124.LOD1	-0.351072
	13411	C	2.822860	3.041449	11.509487	C	6	YLD124.LOD1	0.617997
	13412	C	1.137634	4.002602	13.216627	C	6	YLD124.LOD1	0.253109
	13413	C	3.346879	0.342138	15.002458	C	6	YLD124.LOD1	-0.451385
	13414	N	6.171271	3.051287	16.275734	N	6	YLD124.LOD1	-0.428829
	13415	F	3.976474	2.361190	11.430757	F	6	YLD124.LOD1	-0.200469
	13416	F	1.890649	2.349080	10.835805	F	6	YLD124.LOD1	-0.158364
	13417	F	2.996707	4.222658	10.875767	F	6	YLD124.LOD1	-0.193377
	13418	C	1.246081	5.325052	13.672071	C	6	YLD124.LOD1	-0.158716
	13419	C	-0.136978	3.456533	13.019496	C	6	YLD124.LOD1	-0.162688
	13420	C	4.329566	-0.071365	15.947505	C	6	YLD124.LOD1	0.447489
	13421	C	2.363872	-0.614024	14.608739	C	6	YLD124.LOD1	0.491336
	13422	H	2.227397	5.759731	13.837259	H	6	YLD124.LOD1	0.085247
	13423	C	0.108733	6.088683	13.918172	C	6	YLD124.LOD1	-0.074329
	13424	C	-1.276332	4.228923	13.258413	C	6	YLD124.LOD1	-0.055824
	13425	H	-0.261074	2.434150	12.687021	H	6	YLD124.LOD1	0.099228
	13426	N	5.112940	-0.450678	16.721451	N	6	YLD124.LOD1	-0.454587
	13427	N	1.566391	-1.403721	14.298208	N	6	YLD124.LOD1	-0.481156
	13428	H	0.214270	7.109562	14.273747	H	6	YLD124.LOD1	0.111202
	13429	C	-1.159467	5.543120	13.707242	C	6	YLD124.LOD1	-0.106678
	13430	H	-2.257735	3.789984	13.101944	H	6	YLD124.LOD1	0.095951
	13431	H	-2.048764	6.137550	13.897364	H	6	YLD124.LOD1	0.103827
	13432	H	5.108155	5.273195	14.522874	H	6	YLD124.LOD1	0.159396
	13433	H	1.906699	7.773404	11.864764	H	6	YLD124.LOD1	-0.052081
	13434	H	3.219374	11.007432	10.283550	H	6	YLD124.LOD1	-0.003289
	13435	C	8.936092	18.205928	13.585180	C	6	YLD124.LOD1	0.198954
	13436	C	7.438658	19.382268	12.137415	C	6	YLD124.LOD1	0.115128
	13437	C	6.518805	20.210115	12.846249	C	6	YLD124.LOD1	0.306486
	13438	C	8.758208	18.645904	14.931638	C	6	YLD124.LOD1	0.28632
	13439	O	8.456210	19.954800	15.033100	O	6	YLD124.LOD1	-0.606883
	13440	O	5.469960	19.510200	13.320600	O	6	YLD124.LOD1	-0.600198
	13441	C	2.939073	18.661967	14.268320	C	6	YLD124.LOD1	0.267162
	13442	C	8.590419	22.761961	16.012136	C	6	YLD124.LOD1	0.369124
	13443	C	8.250297	23.645858	17.232922	C	6	YLD124.LOD1	-0.324271
	13444	H	8.820724	23.357370	18.124655	H	6	YLD124.LOD1	0.053925
	13445	H	8.491752	24.697211	17.020169	H	6	YLD124.LOD1	0.070181
	13446	H	7.184680	23.604636	17.489019	H	6	YLD124.LOD1	0.052098
	13447	C	1.411223	18.794706	14.082588	C	6	YLD124.LOD1	-0.316887
	13448	H	0.884176	18.170083	14.817943	H	6	YLD124.LOD1	0.07213
	13449	H	1.064632	19.825703	14.226378	H	6	YLD124.LOD1	0.059956
	13450	H	1.085353	18.467206	13.087494	H	6	YLD124.LOD1	0.057948
	13451	C	7.777760	23.250270	14.793443	C	6	YLD124.LOD1	-0.260833
	13452	H	7.979168	22.644736	13.901909	H	6	YLD124.LOD1	0.041714
	13453	H	6.698074	23.215417	14.981326	H	6	YLD124.LOD1	0.041636
	13454	H	8.033935	24.292296	14.552968	H	6	YLD124.LOD1	0.048242
	13455	C	10.095406	22.906930	15.698580	C	6	YLD124.LOD1	-0.256632
	13456	H	10.346071	23.960241	15.505983	H	6	YLD124.LOD1	0.046696
	13457	H	10.727469	22.571017	16.529841	H	6	YLD124.LOD1	0.030906
	13458	H	10.384500	22.339477	14.805714	H	6	YLD124.LOD1	0.051975
	13459	C	3.344787	17.183813	14.080722	C	6	YLD124.LOD1	-0.203727
	13460	H	3.067029	16.805779	13.089066	H	6	YLD124.LOD1	0.027457
	13461	H	4.424252	17.042213	14.203802	H	6	YLD124.LOD1	0.031775
	13462	H	2.837344	16.552062	14.823903	H	6	YLD124.LOD1	0.046776
	13463	C	3.315283	19.107554	15.698261	C	6	YLD124.LOD1	-0.249027
	13464	H	3.015259	20.144007	15.896377	H	6	YLD124.LOD1	0.037596
	13465	H	2.808236	18.474583	16.440735	H	6	YLD124.LOD1	0.055765
	13466	H	4.393854	19.030476	15.874778	H	6	YLD124.LOD1	0.04836
	13467	C	3.431530	21.537662	13.169365	C	6	YLD124.LOD1	-0.409962
	13468	H	3.635137	21.892655	14.185872	H	6	YLD124.LOD1	0.090944
	13469	H	4.013334	22.158834	12.477356	H	6	YLD124.LOD1	0.090896
	13470	H	2.372123	21.725988	12.956684	H	6	YLD124.LOD1	0.069902
	13471	C	3.480816	19.249025	11.254585	C	6	YLD124.LOD1	-0.458602
	13472	H	4.046226	19.851155	10.532807	H	6	YLD124.LOD1	0.097974
	13473	H	3.736992	18.197504	11.083246	H	6	YLD124.LOD1	0.103309
	13474	H	2.417675	19.376118	11.016617	H	6	YLD124.LOD1	0.085827
	13475	C	6.332121	20.723809	16.634797	C	6	YLD124.LOD1	-0.493974
	13476	H	5.763734	20.983122	15.734854	H	6	YLD124.LOD1	0.11158
	13477	H	6.101215	19.681088	16.881481	H	6	YLD124.LOD1	0.113577
	13478	H	5.964615	21.349655	17.456292	H	6	YLD124.LOD1	0.09477
	13479	C	9.052121	20.303854	17.827718	C	6	YLD124.LOD1	-0.483575
	13480	H	8.803591	19.253246	18.021363	H	6	YLD124.LOD1	0.116965
	13481	H	10.139346	20.371827	17.708083	H	6	YLD124.LOD1	0.100121
	13482	H	8.787414	20.870757	18.728281	H	6	YLD124.LOD1	0.088084
	13483	Si	8.126340	20.926200	16.372000	Si	6	YLD124.LOD1	0.763339
	13484	Si	3.836830	19.760700	12.978100	Si	6	YLD124.LOD1	0.748472
	13485	H	7.926107	18.043063	15.324082	H	6	YLD124.LOD1	-0.009815
	13486	H	8.347988	19.946555	11.911852	H	6	YLD124.LOD1	0.057511
	13487	H	7.074829	20.656773	13.683051	H	6	YLD124.LOD1	-0.045737
	13488	H	6.153586	21.034067	12.214947	H	6	YLD124.LOD1	-0.011652
	13489	H	6.961265	19.170098	11.175016	H	6	YLD124.LOD1	0.023801
	13490	H	9.425563	17.226320	13.573372	H	6	YLD124.LOD1	-0.001966
	13491	H	9.655901	18.913339	13.164360	H	6	YLD124.LOD1	0.031172
	13492	H	9.642399	18.422650	15.544594	H	6	YLD124.LOD1	-0.066029
	13493	C	1.232595	10.204574	12.963737	C	6	YLD124.LOD1	-0.185058
	13494	H	0.682154	11.152922	12.948364	H	6	YLD124.LOD1	0.04722
	13495	H	0.511195	9.404134	13.167096	H	6	YLD124.LOD1	0.027573
	13496	H	1.938136	10.239510	13.799660	H	6	YLD124.LOD1	0.00699
	13497	C	0.892585	9.958437	10.492249	C	6	YLD124.LOD1	-0.347891
	13498	H	0.363516	10.917868	10.441736	H	6	YLD124.LOD1	0.075067
	13499	H	1.352833	9.776718	9.513321	H	6	YLD124.LOD1	0.071859
	13500	H	0.143927	9.175222	10.661996	H	6	YLD124.LOD1	0.077505
@<TRIPOS>BOND
1	1	2	2
2	1	4	1
3	1	9	1
4	2	3	1
5	2	16	1
6	5	6	1
7	5	60	1
8	5	61	1
9	6	7	1
10	6	11	1
11	7	8	2
12	7	12	1
13	8	9	1
14	8	13	1
15	9	10	2
16	10	11	1
17	10	14	1
18	11	15	1
19	16	17	2
20	16	18	1
21	17	19	1
22	17	24	1
23	18	20	1
24	18	21	1
25	18	59	1
26	20	22	1
27	20	118	1
28	20	122	1
29	22	23	1
30	22	24	1
31	22	58	1
32	24	25	2
33	25	26	1
34	25	27	1
35	27	28	2
36	27	29	1
37	28	30	1
38	28	57	1
39	30	31	2
40	30	32	1
41	31	33	1
42	31	34	1
43	32	35	1
44	32	36	1
45	32	37	1
46	33	35	1
47	33	38	2
48	34	39	3
49	36	40	1
50	36	41	1
51	36	42	1
52	37	43	1
53	37	44	2
54	38	45	1
55	38	46	1
56	43	47	1
57	43	48	2
58	44	49	1
59	44	50	1
60	45	51	3
61	46	52	3
62	48	53	1
63	48	54	1
64	49	54	2
65	49	55	1
66	54	56	1
67	60	63	1
68	60	115	1
69	60	116	1
70	61	62	1
71	61	111	1
72	61	114	1
73	62	65	1
74	62	112	1
75	62	113	1
76	63	64	1
77	63	110	1
78	63	117	1
79	64	108	1
80	65	109	1
81	66	72	1
82	66	84	1
83	66	88	1
84	66	109	1
85	67	68	1
86	67	76	1
87	67	80	1
88	67	108	1
89	68	69	1
90	68	70	1
91	68	71	1
92	72	73	1
93	72	74	1
94	72	75	1
95	76	77	1
96	76	78	1
97	76	79	1
98	80	81	1
99	80	82	1
100	80	83	1
101	84	85	1
102	84	86	1
103	84	87	1
104	88	89	1
105	88	90	1
106	88	91	1
107	92	93	1
108	92	94	1
109	92	95	1
110	92	109	1
111	96	97	1
112	96	98	1
113	96	99	1
114	96	109	1
115	100	101	1
116	100	102	1
117	100	103	1
118	100	108	1
119	104	105	1
120	104	106	1
121	104	107	1
122	104	108	1
123	118	119	1
124	118	120	1
125	118	121	1
126	122	123	1
127	122	124	1
128	122	125	1
129	126	127	2
130	126	129	1
131	126	134	1
132	127	128	1
133	127	141	1
134	130	131	1
135	130	185	1
136	130	186	1
137	131	132	1
138	131	136	1
139	132	133	2
140	132	137	1
141	133	134	1
142	133	138	1
143	134	135	2
144	135	136	1
145	135	139	1
146	136	140	1
147	141	142	2
148	141	143	1
149	142	144	1
150	142	149	1
151	143	145	1
152	143	146	1
153	143	184	1
154	145	147	1
155	145	243	1
156	145	247	1
157	147	148	1
158	147	149	1
159	147	183	1
160	149	150	2
161	150	151	1
162	150	152	1
163	152	153	2
164	152	154	1
165	153	155	1
166	153	182	1
167	155	156	2
168	155	157	1
169	156	158	1
170	156	159	1
171	157	160	1
172	157	161	1
173	157	162	1
174	158	160	1
175	158	163	2
176	159	164	3
177	161	165	1
178	161	166	1
179	161	167	1
180	162	168	1
181	162	169	2
182	163	170	1
183	163	171	1
184	168	172	1
185	168	173	2
186	169	174	1
187	169	175	1
188	170	176	3
189	171	177	3
190	173	178	1
191	173	179	1
192	174	179	2
193	174	180	1
194	179	181	1
195	185	188	1
196	185	240	1
197	185	241	1
198	186	187	1
199	186	236	1
200	186	239	1
201	187	190	1
202	187	237	1
203	187	238	1
204	188	189	1
205	188	235	1
206	188	242	1
207	189	233	1
208	190	234	1
209	191	197	1
210	191	209	1
211	191	213	1
212	191	234	1
213	192	193	1
214	192	201	1
215	192	205	1
216	192	233	1
217	193	194	1
218	193	195	1
219	193	196	1
220	197	198	1
221	197	199	1
222	197	200	1
223	201	202	1
224	201	203	1
225	201	204	1
226	205	206	1
227	205	207	1
228	205	208	1
229	209	210	1
230	209	211	1
231	209	212	1
232	213	214	1
233	213	215	1
234	213	216	1
235	217	218	1
236	217	219	1
237	217	220	1
238	217	234	1
239	221	222	1
240	221	223	1
241	221	224	1
242	221	234	1
243	225	226	1
244	225	227	1
245	225	228	1
246	225	233	1
247	229	230	1
248	229	231	1
249	229	232	1
250	229	233	1
251	243	244	1
252	243	245	1
253	243	246	1
254	247	248	1
255	247	249	1
256	247	250	1
257	251	252	2
258	251	254	1
259	251	259	1
260	252	253	1
261	252	266	1
262	255	256	1
263	255	310	1
264	255	311	1
265	256	257	1
266	256	261	1
267	257	258	2
268	257	262	1
269	258	259	1
270	258	263	1
271	259	260	2
272	260	261	1
273	260	264	1
274	261	265	1
275	266	267	2
276	266	268	1
277	267	269	1
278	267	274	1
279	268	270	1
280	268	271	1
281	268	309	1
282	270	272	1
283	270	368	1
284	270	372	1
285	272	273	1
286	272	274	1
287	272	308	1
288	274	275	2
289	275	276	1
290	275	277	1
291	277	278	2
292	277	279	1
293	278	280	1
294	278	307	1
295	280	281	2
296	280	282	1
297	281	283	1
298	281	284	1
299	282	285	1
300	282	286	1
301	282	287	1
302	283	285	1
303	283	288	2
304	284	289	3
305	286	290	1
306	286	291	1
307	286	292	1
308	287	293	1
309	287	294	2
310	288	295	1
311	288	296	1
312	293	297	1
313	293	298	2
314	294	299	1
315	294	300	1
316	295	301	3
317	296	302	3
318	298	303	1
319	298	304	1
320	299	304	2
321	299	305	1
322	304	306	1
323	310	313	1
324	310	365	1
325	310	366	1
326	311	312	1
327	311	361	1
328	311	364	1
329	312	315	1
330	312	362	1
331	312	363	1
332	313	314	1
333	313	360	1
334	313	367	1
335	314	358	1
336	315	359	1
337	316	322	1
338	316	334	1
339	316	338	1
340	316	359	1
341	317	318	1
342	317	326	1
343	317	330	1
344	317	358	1
345	318	319	1
346	318	320	1
347	318	321	1
348	322	323	1
349	322	324	1
350	322	325	1
351	326	327	1
352	326	328	1
353	326	329	1
354	330	331	1
355	330	332	1
356	330	333	1
357	334	335	1
358	334	336	1
359	334	337	1
360	338	339	1
361	338	340	1
362	338	341	1
363	342	343	1
364	342	344	1
365	342	345	1
366	342	359	1
367	346	347	1
368	346	348	1
369	346	349	1
370	346	359	1
371	350	351	1
372	350	352	1
373	350	353	1
374	350	358	1
375	354	355	1
376	354	356	1
377	354	357	1
378	354	358	1
379	368	369	1
380	368	370	1
381	368	371	1
382	372	373	1
383	372	374	1
384	372	375	1
385	376	377	2
386	376	379	1
387	376	384	1
388	377	378	1
389	377	391	1
390	380	381	1
391	380	435	1
392	380	436	1
393	381	382	1
394	381	386	1
395	382	383	2
396	382	387	1
397	383	384	1
398	383	388	1
399	384	385	2
400	385	386	1
401	385	389	1
402	386	390	1
403	391	392	2
404	391	393	1
405	392	394	1
406	392	399	1
407	393	395	1
408	393	396	1
409	393	434	1
410	395	397	1
411	395	493	1
412	395	497	1
413	397	398	1
414	397	399	1
415	397	433	1
416	399	400	2
417	400	401	1
418	400	402	1
419	402	403	2
420	402	404	1
421	403	405	1
422	403	432	1
423	405	406	2
424	405	407	1
425	406	408	1
426	406	409	1
427	407	410	1
428	407	411	1
429	407	412	1
430	408	410	1
431	408	413	2
432	409	414	3
433	411	415	1
434	411	416	1
435	411	417	1
436	412	418	1
437	412	419	2
438	413	420	1
439	413	421	1
440	418	422	1
441	418	423	2
442	419	424	1
443	419	425	1
444	420	426	3
445	421	427	3
446	423	428	1
447	423	429	1
448	424	429	2
449	424	430	1
450	429	431	1
451	435	438	1
452	435	490	1
453	435	491	1
454	436	437	1
455	436	486	1
456	436	489	1
457	437	440	1
458	437	487	1
459	437	488	1
460	438	439	1
461	438	485	1
462	438	492	1
463	439	483	1
464	440	484	1
465	441	447	1
466	441	459	1
467	441	463	1
468	441	484	1
469	442	443	1
470	442	451	1
471	442	455	1
472	442	483	1
473	443	444	1
474	443	445	1
475	443	446	1
476	447	448	1
477	447	449	1
478	447	450	1
479	451	452	1
480	451	453	1
481	451	454	1
482	455	456	1
483	455	457	1
484	455	458	1
485	459	460	1
486	459	461	1
487	459	462	1
488	463	464	1
489	463	465	1
490	463	466	1
491	467	468	1
492	467	469	1
493	467	470	1
494	467	484	1
495	471	472	1
496	471	473	1
497	471	474	1
498	471	484	1
499	475	476	1
500	475	477	1
501	475	478	1
502	475	483	1
503	479	480	1
504	479	481	1
505	479	482	1
506	479	483	1
507	493	494	1
508	493	495	1
509	493	496	1
510	497	498	1
511	497	499	1
512	497	500	1
513	501	502	2
514	501	504	1
515	501	509	1
516	502	503	1
517	502	516	1
518	505	506	1
519	505	560	1
520	505	561	1
521	506	507	1
522	506	511	1
523	507	508	2
524	507	512	1
525	508	509	1
526	508	513	1
527	509	510	2
528	510	511	1
529	510	514	1
530	511	515	1
531	516	517	2
532	516	518	1
533	517	519	1
534	517	524	1
535	518	520	1
536	518	521	1
537	518	559	1
538	520	522	1
539	520	618	1
540	520	622	1
541	522	523	1
542	522	524	1
543	522	558	1
544	524	525	2
545	525	526	1
546	525	527	1
547	527	528	2
548	527	529	1
549	528	530	1
550	528	557	1
551	530	531	2
552	530	532	1
553	531	533	1
554	531	534	1
555	532	535	1
556	532	536	1
557	532	537	1
558	533	535	1
559	533	538	2
560	534	539	3
561	536	540	1
562	536	541	1
563	536	542	1
564	537	543	1
565	537	544	2
566	538	545	1
567	538	546	1
568	543	547	1
569	543	548	2
570	544	549	1
571	544	550	1
572	545	551	3
573	546	552	3
574	548	553	1
575	548	554	1
576	549	554	2
577	549	555	1
578	554	556	1
579	560	563	1
580	560	615	1
581	560	616	1
582	561	562	1
583	561	611	1
584	561	614	1
585	562	565	1
586	562	612	1
587	562	613	1
588	563	564	1
589	563	610	1
590	563	617	1
591	564	608	1
592	565	609	1
593	566	572	1
594	566	584	1
595	566	588	1
596	566	609	1
597	567	568	1
598	567	576	1
599	567	580	1
600	567	608	1
601	568	569	1
602	568	570	1
603	568	571	1
604	572	573	1
605	572	574	1
606	572	575	1
607	576	577	1
608	576	578	1
609	576	579	1
610	580	581	1
611	580	582	1
612	580	583	1
613	584	585	1
614	584	586	1
615	584	587	1
616	588	589	1
617	588	590	1
618	588	591	1
619	592	593	1
620	592	594	1
621	592	595	1
622	592	609	1
623	596	597	1
624	596	598	1
625	596	599	1
626	596	609	1
627	600	601	1
628	600	602	1
629	600	603	1
630	600	608	1
631	604	605	1
632	604	606	1
633	604	607	1
634	604	608	1
635	618	619	1
636	618	620	1
637	618	621	1
638	622	623	1
639	622	624	1
640	622	625	1
641	626	627	2
642	626	629	1
643	626	634	1
644	627	628	1
645	627	641	1
646	630	631	1
647	630	672	1
648	630	673	1
649	631	632	1
650	631	636	1
651	632	633	2
652	632	637	1
653	633	634	1
654	633	638	1
655	634	635	2
656	635	636	1
657	635	639	1
658	636	640	1
659	641	642	2
660	641	643	1
661	642	644	1
662	642	649	1
663	643	645	1
664	643	646	1
665	643	671	1
666	645	647	1
667	645	730	1
668	645	734	1
669	647	648	1
670	647	649	1
671	647	670	1
672	649	650	2
673	650	651	1
674	650	652	1
675	652	653	2
676	652	654	1
677	653	655	1
678	653	669	1
679	655	656	2
680	655	657	1
681	656	658	1
682	656	659	1
683	657	660	1
684	657	661	1
685	657	662	1
686	658	660	1
687	658	663	2
688	659	664	3
689	661	738	1
690	661	739	2
691	662	748	1
692	662	749	1
693	662	750	1
694	663	665	1
695	663	666	1
696	665	667	3
697	666	668	3
698	672	675	1
699	672	727	1
700	672	728	1
701	673	674	1
702	673	723	1
703	673	726	1
704	674	677	1
705	674	724	1
706	674	725	1
707	675	676	1
708	675	722	1
709	675	729	1
710	676	720	1
711	677	721	1
712	678	684	1
713	678	696	1
714	678	700	1
715	678	721	1
716	679	680	1
717	679	688	1
718	679	692	1
719	679	720	1
720	680	681	1
721	680	682	1
722	680	683	1
723	684	685	1
724	684	686	1
725	684	687	1
726	688	689	1
727	688	690	1
728	688	691	1
729	692	693	1
730	692	694	1
731	692	695	1
732	696	697	1
733	696	698	1
734	696	699	1
735	700	701	1
736	700	702	1
737	700	703	1
738	704	705	1
739	704	706	1
740	704	707	1
741	704	721	1
742	708	709	1
743	708	710	1
744	708	711	1
745	708	721	1
746	712	713	1
747	712	714	1
748	712	715	1
749	712	720	1
750	716	717	1
751	716	718	1
752	716	719	1
753	716	720	1
754	730	731	1
755	730	732	1
756	730	733	1
757	734	735	1
758	734	736	1
759	734	737	1
760	738	740	2
761	738	741	1
762	739	742	1
763	739	743	1
764	740	744	1
765	740	745	1
766	742	744	2
767	742	747	1
768	744	746	1
769	751	752	2
770	751	754	1
771	751	759	1
772	752	753	1
773	752	766	1
774	755	756	1
775	755	810	1
776	755	811	1
777	756	757	1
778	756	761	1
779	757	758	2
780	757	762	1
781	758	759	1
782	758	763	1
783	759	760	2
784	760	761	1
785	760	764	1
786	761	765	1
787	766	767	2
788	766	768	1
789	767	769	1
790	767	774	1
791	768	770	1
792	768	771	1
793	768	809	1
794	770	772	1
795	770	868	1
796	770	872	1
797	772	773	1
798	772	774	1
799	772	808	1
800	774	775	2
801	775	776	1
802	775	777	1
803	777	778	2
804	777	779	1
805	778	780	1
806	778	807	1
807	780	781	2
808	780	782	1
809	781	783	1
810	781	784	1
811	782	785	1
812	782	786	1
813	782	787	1
814	783	785	1
815	783	788	2
816	784	789	3
817	786	790	1
818	786	791	1
819	786	792	1
820	787	793	1
821	787	794	2
822	788	795	1
823	788	796	1
824	793	797	1
825	793	798	2
826	794	799	1
827	794	800	1
828	795	801	3
829	796	802	3
830	798	803	1
831	798	804	1
832	799	804	2
833	799	805	1
834	804	806	1
835	810	813	1
836	810	865	1
837	810	866	1
838	811	812	1
839	811	861	1
840	811	864	1
841	812	815	1
842	812	862	1
843	812	863	1
844	813	814	1
845	813	860	1
846	813	867	1
847	814	858	1
848	815	859	1
849	816	822	1
850	816	834	1
851	816	838	1
852	816	859	1
853	817	818	1
854	817	826	1
855	817	830	1
856	817	858	1
857	818	819	1
858	818	820	1
859	818	821	1
860	822	823	1
861	822	824	1
862	822	825	1
863	826	827	1
864	826	828	1
865	826	829	1
866	830	831	1
867	830	832	1
868	830	833	1
869	834	835	1
870	834	836	1
871	834	837	1
872	838	839	1
873	838	840	1
874	838	841	1
875	842	843	1
876	842	844	1
877	842	845	1
878	842	859	1
879	846	847	1
880	846	848	1
881	846	849	1
882	846	859	1
883	850	851	1
884	850	852	1
885	850	853	1
886	850	858	1
887	854	855	1
888	854	856	1
889	854	857	1
890	854	858	1
891	868	869	1
892	868	870	1
893	868	871	1
894	872	873	1
895	872	874	1
896	872	875	1
897	876	877	2
898	876	879	1
899	876	884	1
900	877	878	1
901	877	891	1
902	880	881	1
903	880	935	1
904	880	936	1
905	881	882	1
906	881	886	1
907	882	883	2
908	882	887	1
909	883	884	1
910	883	888	1
911	884	885	2
912	885	886	1
913	885	889	1
914	886	890	1
915	891	892	2
916	891	893	1
917	892	894	1
918	892	899	1
919	893	895	1
920	893	896	1
921	893	934	1
922	895	897	1
923	895	993	1
924	895	997	1
925	897	898	1
926	897	899	1
927	897	933	1
928	899	900	2
929	900	901	1
930	900	902	1
931	902	903	2
932	902	904	1
933	903	905	1
934	903	932	1
935	905	906	2
936	905	907	1
937	906	908	1
938	906	909	1
939	907	910	1
940	907	911	1
941	907	912	1
942	908	910	1
943	908	913	2
944	909	914	3
945	911	915	1
946	911	916	1
947	911	917	1
948	912	918	1
949	912	919	2
950	913	920	1
951	913	921	1
952	918	922	1
953	918	923	2
954	919	924	1
955	919	925	1
956	920	926	3
957	921	927	3
958	923	928	1
959	923	929	1
960	924	929	2
961	924	930	1
962	929	931	1
963	935	938	1
964	935	990	1
965	935	991	1
966	936	937	1
967	936	986	1
968	936	989	1
969	937	940	1
970	937	987	1
971	937	988	1
972	938	939	1
973	938	985	1
974	938	992	1
975	939	983	1
976	940	984	1
977	941	947	1
978	941	959	1
979	941	963	1
980	941	984	1
981	942	943	1
982	942	951	1
983	942	955	1
984	942	983	1
985	943	944	1
986	943	945	1
987	943	946	1
988	947	948	1
989	947	949	1
990	947	950	1
991	951	952	1
992	951	953	1
993	951	954	1
994	955	956	1
995	955	957	1
996	955	958	1
997	959	960	1
998	959	961	1
999	959	962	1
1000	963	964	1
1001	963	965	1
1002	963	966	1
1003	967	968	1
1004	967	969	1
1005	967	970	1
1006	967	984	1
1007	971	972	1
1008	971	973	1
1009	971	974	1
1010	971	984	1
1011	975	976	1
1012	975	977	1
1013	975	978	1
1014	975	983	1
1015	979	980	1
1016	979	981	1
1017	979	982	1
1018	979	983	1
1019	993	994	1
1020	993	995	1
1021	993	996	1
1022	997	998	1
1023	997	999	1
1024	997	1000	1
1025	1001	1002	2
1026	1001	1004	1
1027	1001	1009	1
1028	1002	1003	1
1029	1002	1016	1
1030	1005	1006	1
1031	1005	1047	1
1032	1005	1048	1
1033	1006	1007	1
1034	1006	1011	1
1035	1007	1008	2
1036	1007	1012	1
1037	1008	1009	1
1038	1008	1013	1
1039	1009	1010	2
1040	1010	1011	1
1041	1010	1014	1
1042	1011	1015	1
1043	1016	1017	2
1044	1016	1018	1
1045	1017	1019	1
1046	1017	1024	1
1047	1018	1020	1
1048	1018	1021	1
1049	1018	1046	1
1050	1020	1022	1
1051	1020	1105	1
1052	1020	1109	1
1053	1022	1023	1
1054	1022	1024	1
1055	1022	1045	1
1056	1024	1025	2
1057	1025	1026	1
1058	1025	1027	1
1059	1027	1028	2
1060	1027	1029	1
1061	1028	1030	1
1062	1028	1044	1
1063	1030	1031	2
1064	1030	1032	1
1065	1031	1033	1
1066	1031	1034	1
1067	1032	1035	1
1068	1032	1036	1
1069	1032	1037	1
1070	1033	1035	1
1071	1033	1038	2
1072	1034	1039	3
1073	1036	1113	1
1074	1036	1114	2
1075	1037	1123	1
1076	1037	1124	1
1077	1037	1125	1
1078	1038	1040	1
1079	1038	1041	1
1080	1040	1042	3
1081	1041	1043	3
1082	1047	1050	1
1083	1047	1102	1
1084	1047	1103	1
1085	1048	1049	1
1086	1048	1098	1
1087	1048	1101	1
1088	1049	1052	1
1089	1049	1099	1
1090	1049	1100	1
1091	1050	1051	1
1092	1050	1097	1
1093	1050	1104	1
1094	1051	1095	1
1095	1052	1096	1
1096	1053	1059	1
1097	1053	1071	1
1098	1053	1075	1
1099	1053	1096	1
1100	1054	1055	1
1101	1054	1063	1
1102	1054	1067	1
1103	1054	1095	1
1104	1055	1056	1
1105	1055	1057	1
1106	1055	1058	1
1107	1059	1060	1
1108	1059	1061	1
1109	1059	1062	1
1110	1063	1064	1
1111	1063	1065	1
1112	1063	1066	1
1113	1067	1068	1
1114	1067	1069	1
1115	1067	1070	1
1116	1071	1072	1
1117	1071	1073	1
1118	1071	1074	1
1119	1075	1076	1
1120	1075	1077	1
1121	1075	1078	1
1122	1079	1080	1
1123	1079	1081	1
1124	1079	1082	1
1125	1079	1096	1
1126	1083	1084	1
1127	1083	1085	1
1128	1083	1086	1
1129	1083	1096	1
1130	1087	1088	1
1131	1087	1089	1
1132	1087	1090	1
1133	1087	1095	1
1134	1091	1092	1
1135	1091	1093	1
1136	1091	1094	1
1137	1091	1095	1
1138	1105	1106	1
1139	1105	1107	1
1140	1105	1108	1
1141	1109	1110	1
1142	1109	1111	1
1143	1109	1112	1
1144	1113	1115	2
1145	1113	1116	1
1146	1114	1117	1
1147	1114	1118	1
1148	1115	1119	1
1149	1115	1120	1
1150	1117	1119	2
1151	1117	1122	1
1152	1119	1121	1
1153	1126	1127	2
1154	1126	1129	1
1155	1126	1134	1
1156	1127	1128	1
1157	1127	1141	1
1158	1130	1131	1
1159	1130	1172	1
1160	1130	1173	1
1161	1131	1132	1
1162	1131	1136	1
1163	1132	1133	2
1164	1132	1137	1
1165	1133	1134	1
1166	1133	1138	1
1167	1134	1135	2
1168	1135	1136	1
1169	1135	1139	1
1170	1136	1140	1
1171	1141	1142	2
1172	1141	1143	1
1173	1142	1144	1
1174	1142	1149	1
1175	1143	1145	1
1176	1143	1146	1
1177	1143	1171	1
1178	1145	1147	1
1179	1145	1230	1
1180	1145	1234	1
1181	1147	1148	1
1182	1147	1149	1
1183	1147	1170	1
1184	1149	1150	2
1185	1150	1151	1
1186	1150	1152	1
1187	1152	1153	2
1188	1152	1154	1
1189	1153	1155	1
1190	1153	1169	1
1191	1155	1156	2
1192	1155	1157	1
1193	1156	1158	1
1194	1156	1159	1
1195	1157	1160	1
1196	1157	1161	1
1197	1157	1162	1
1198	1158	1160	1
1199	1158	1163	2
1200	1159	1164	3
1201	1161	1238	1
1202	1161	1239	2
1203	1162	1248	1
1204	1162	1249	1
1205	1162	1250	1
1206	1163	1165	1
1207	1163	1166	1
1208	1165	1167	3
1209	1166	1168	3
1210	1172	1175	1
1211	1172	1227	1
1212	1172	1228	1
1213	1173	1174	1
1214	1173	1223	1
1215	1173	1226	1
1216	1174	1177	1
1217	1174	1224	1
1218	1174	1225	1
1219	1175	1176	1
1220	1175	1222	1
1221	1175	1229	1
1222	1176	1220	1
1223	1177	1221	1
1224	1178	1184	1
1225	1178	1196	1
1226	1178	1200	1
1227	1178	1221	1
1228	1179	1180	1
1229	1179	1188	1
1230	1179	1192	1
1231	1179	1220	1
1232	1180	1181	1
1233	1180	1182	1
1234	1180	1183	1
1235	1184	1185	1
1236	1184	1186	1
1237	1184	1187	1
1238	1188	1189	1
1239	1188	1190	1
1240	1188	1191	1
1241	1192	1193	1
1242	1192	1194	1
1243	1192	1195	1
1244	1196	1197	1
1245	1196	1198	1
1246	1196	1199	1
1247	1200	1201	1
1248	1200	1202	1
1249	1200	1203	1
1250	1204	1205	1
1251	1204	1206	1
1252	1204	1207	1
1253	1204	1221	1
1254	1208	1209	1
1255	1208	1210	1
1256	1208	1211	1
1257	1208	1221	1
1258	1212	1213	1
1259	1212	1214	1
1260	1212	1215	1
1261	1212	1220	1
1262	1216	1217	1
1263	1216	1218	1
1264	1216	1219	1
1265	1216	1220	1
1266	1230	1231	1
1267	1230	1232	1
1268	1230	1233	1
1269	1234	1235	1
1270	1234	1236	1
1271	1234	1237	1
1272	1238	1240	2
1273	1238	1241	1
1274	1239	1242	1
1275	1239	1243	1
1276	1240	1244	1
1277	1240	1245	1
1278	1242	1244	2
1279	1242	1247	1
1280	1244	1246	1
1281	1251	1252	2
1282	1251	1254	1
1283	1251	1259	1
1284	1252	1253	1
1285	1252	1266	1
1286	1255	1256	1
1287	1255	1297	1
1288	1255	1298	1
1289	1256	1257	1
1290	1256	1261	1
1291	1257	1258	2
1292	1257	1262	1
1293	1258	1259	1
1294	1258	1263	1
1295	1259	1260	2
1296	1260	1261	1
1297	1260	1264	1
1298	1261	1265	1
1299	1266	1267	2
1300	1266	1268	1
1301	1267	1269	1
1302	1267	1274	1
1303	1268	1270	1
1304	1268	1271	1
1305	1268	1296	1
1306	1270	1272	1
1307	1270	1355	1
1308	1270	1359	1
1309	1272	1273	1
1310	1272	1274	1
1311	1272	1295	1
1312	1274	1275	2
1313	1275	1276	1
1314	1275	1277	1
1315	1277	1278	2
1316	1277	1279	1
1317	1278	1280	1
1318	1278	1294	1
1319	1280	1281	2
1320	1280	1282	1
1321	1281	1283	1
1322	1281	1284	1
1323	1282	1285	1
1324	1282	1286	1
1325	1282	1287	1
1326	1283	1285	1
1327	1283	1288	2
1328	1284	1289	3
1329	1286	1363	1
1330	1286	1364	2
1331	1287	1373	1
1332	1287	1374	1
1333	1287	1375	1
1334	1288	1290	1
1335	1288	1291	1
1336	1290	1292	3
1337	1291	1293	3
1338	1297	1300	1
1339	1297	1352	1
1340	1297	1353	1
1341	1298	1299	1
1342	1298	1348	1
1343	1298	1351	1
1344	1299	1302	1
1345	1299	1349	1
1346	1299	1350	1
1347	1300	1301	1
1348	1300	1347	1
1349	1300	1354	1
1350	1301	1345	1
1351	1302	1346	1
1352	1303	1309	1
1353	1303	1321	1
1354	1303	1325	1
1355	1303	1346	1
1356	1304	1305	1
1357	1304	1313	1
1358	1304	1317	1
1359	1304	1345	1
1360	1305	1306	1
1361	1305	1307	1
1362	1305	1308	1
1363	1309	1310	1
1364	1309	1311	1
1365	1309	1312	1
1366	1313	1314	1
1367	1313	1315	1
1368	1313	1316	1
1369	1317	1318	1
1370	1317	1319	1
1371	1317	1320	1
1372	1321	1322	1
1373	1321	1323	1
1374	1321	1324	1
1375	1325	1326	1
1376	1325	1327	1
1377	1325	1328	1
1378	1329	1330	1
1379	1329	1331	1
1380	1329	1332	1
1381	1329	1346	1
1382	1333	1334	1
1383	1333	1335	1
1384	1333	1336	1
1385	1333	1346	1
1386	1337	1338	1
1387	1337	1339	1
1388	1337	1340	1
1389	1337	1345	1
1390	1341	1342	1
1391	1341	1343	1
1392	1341	1344	1
1393	1341	1345	1
1394	1355	1356	1
1395	1355	1357	1
1396	1355	1358	1
1397	1359	1360	1
1398	1359	1361	1
1399	1359	1362	1
1400	1363	1365	2
1401	1363	1366	1
1402	1364	1367	1
1403	1364	1368	1
1404	1365	1369	1
1405	1365	1370	1
1406	1367	1369	2
1407	1367	1372	1
1408	1369	1371	1
1409	1376	1377	2
1410	1376	1379	1
1411	1376	1384	1
1412	1377	1378	1
1413	1377	1391	1
1414	1380	1381	1
1415	1380	1422	1
1416	1380	1423	1
1417	1381	1382	1
1418	1381	1386	1
1419	1382	1383	2
1420	1382	1387	1
1421	1383	1384	1
1422	1383	1388	1
1423	1384	1385	2
1424	1385	1386	1
1425	1385	1389	1
1426	1386	1390	1
1427	1391	1392	2
1428	1391	1393	1
1429	1392	1394	1
1430	1392	1399	1
1431	1393	1395	1
1432	1393	1396	1
1433	1393	1421	1
1434	1395	1397	1
1435	1395	1480	1
1436	1395	1484	1
1437	1397	1398	1
1438	1397	1399	1
1439	1397	1420	1
1440	1399	1400	2
1441	1400	1401	1
1442	1400	1402	1
1443	1402	1403	2
1444	1402	1404	1
1445	1403	1405	1
1446	1403	1419	1
1447	1405	1406	2
1448	1405	1407	1
1449	1406	1408	1
1450	1406	1409	1
1451	1407	1410	1
1452	1407	1411	1
1453	1407	1412	1
1454	1408	1410	1
1455	1408	1413	2
1456	1409	1414	3
1457	1411	1488	1
1458	1411	1489	2
1459	1412	1498	1
1460	1412	1499	1
1461	1412	1500	1
1462	1413	1415	1
1463	1413	1416	1
1464	1415	1417	3
1465	1416	1418	3
1466	1422	1425	1
1467	1422	1477	1
1468	1422	1478	1
1469	1423	1424	1
1470	1423	1473	1
1471	1423	1476	1
1472	1424	1427	1
1473	1424	1474	1
1474	1424	1475	1
1475	1425	1426	1
1476	1425	1472	1
1477	1425	1479	1
1478	1426	1470	1
1479	1427	1471	1
1480	1428	1434	1
1481	1428	1446	1
1482	1428	1450	1
1483	1428	1471	1
1484	1429	1430	1
1485	1429	1438	1
1486	1429	1442	1
1487	1429	1470	1
1488	1430	1431	1
1489	1430	1432	1
1490	1430	1433	1
1491	1434	1435	1
1492	1434	1436	1
1493	1434	1437	1
1494	1438	1439	1
1495	1438	1440	1
1496	1438	1441	1
1497	1442	1443	1
1498	1442	1444	1
1499	1442	1445	1
1500	1446	1447	1
1501	1446	1448	1
1502	1446	1449	1
1503	1450	1451	1
1504	1450	1452	1
1505	1450	1453	1
1506	1454	1455	1
1507	1454	1456	1
1508	1454	1457	1
1509	1454	1471	1
1510	1458	1459	1
1511	1458	1460	1
1512	1458	1461	1
1513	1458	1471	1
1514	1462	1463	1
1515	1462	1464	1
1516	1462	1465	1
1517	1462	1470	1
1518	1466	1467	1
1519	1466	1468	1
1520	1466	1469	1
1521	1466	1470	1
1522	1480	1481	1
1523	1480	1482	1
1524	1480	1483	1
1525	1484	1485	1
1526	1484	1486	1
1527	1484	1487	1
1528	1488	1490	2
1529	1488	1491	1
1530	1489	1492	1
1531	1489	1493	1
1532	1490	1494	1
1533	1490	1495	1
1534	1492	1494	2
1535	1492	1497	1
1536	1494	1496	1
1537	1501	1502	2
1538	1501	1504	1
1539	1501	1509	1
1540	1502	1503	1
1541	1502	1516	1
1542	1505	1506	1
1543	1505	1547	1
1544	1505	1548	1
1545	1506	1507	1
1546	1506	1511	1
1547	1507	1508	2
1548	1507	1512	1
1549	1508	1509	1
1550	1508	1513	1
1551	1509	1510	2
1552	1510	1511	1
1553	1510	1514	1
1554	1511	1515	1
1555	1516	1517	2
1556	1516	1518	1
1557	1517	1519	1
1558	1517	1524	1
1559	1518	1520	1
1560	1518	1521	1
1561	1518	1546	1
1562	1520	1522	1
1563	1520	1605	1
1564	1520	1609	1
1565	1522	1523	1
1566	1522	1524	1
1567	1522	1545	1
1568	1524	1525	2
1569	1525	1526	1
1570	1525	1527	1
1571	1527	1528	2
1572	1527	1529	1
1573	1528	1530	1
1574	1528	1544	1
1575	1530	1531	2
1576	1530	1532	1
1577	1531	1533	1
1578	1531	1534	1
1579	1532	1535	1
1580	1532	1536	1
1581	1532	1537	1
1582	1533	1535	1
1583	1533	1538	2
1584	1534	1539	3
1585	1536	1613	1
1586	1536	1614	2
1587	1537	1623	1
1588	1537	1624	1
1589	1537	1625	1
1590	1538	1540	1
1591	1538	1541	1
1592	1540	1542	3
1593	1541	1543	3
1594	1547	1550	1
1595	1547	1602	1
1596	1547	1603	1
1597	1548	1549	1
1598	1548	1598	1
1599	1548	1601	1
1600	1549	1552	1
1601	1549	1599	1
1602	1549	1600	1
1603	1550	1551	1
1604	1550	1597	1
1605	1550	1604	1
1606	1551	1595	1
1607	1552	1596	1
1608	1553	1559	1
1609	1553	1571	1
1610	1553	1575	1
1611	1553	1596	1
1612	1554	1555	1
1613	1554	1563	1
1614	1554	1567	1
1615	1554	1595	1
1616	1555	1556	1
1617	1555	1557	1
1618	1555	1558	1
1619	1559	1560	1
1620	1559	1561	1
1621	1559	1562	1
1622	1563	1564	1
1623	1563	1565	1
1624	1563	1566	1
1625	1567	1568	1
1626	1567	1569	1
1627	1567	1570	1
1628	1571	1572	1
1629	1571	1573	1
1630	1571	1574	1
1631	1575	1576	1
1632	1575	1577	1
1633	1575	1578	1
1634	1579	1580	1
1635	1579	1581	1
1636	1579	1582	1
1637	1579	1596	1
1638	1583	1584	1
1639	1583	1585	1
1640	1583	1586	1
1641	1583	1596	1
1642	1587	1588	1
1643	1587	1589	1
1644	1587	1590	1
1645	1587	1595	1
1646	1591	1592	1
1647	1591	1593	1
1648	1591	1594	1
1649	1591	1595	1
1650	1605	1606	1
1651	1605	1607	1
1652	1605	1608	1
1653	1609	1610	1
1654	1609	1611	1
1655	1609	1612	1
1656	1613	1615	2
1657	1613	1616	1
1658	1614	1617	1
1659	1614	1618	1
1660	1615	1619	1
1661	1615	1620	1
1662	1617	1619	2
1663	1617	1622	1
1664	1619	1621	1
1665	1626	1627	2
1666	1626	1629	1
1667	1626	1634	1
1668	1627	1628	1
1669	1627	1641	1
1670	1630	1631	1
1671	1630	1672	1
1672	1630	1673	1
1673	1631	1632	1
1674	1631	1636	1
1675	1632	1633	2
1676	1632	1637	1
1677	1633	1634	1
1678	1633	1638	1
1679	1634	1635	2
1680	1635	1636	1
1681	1635	1639	1
1682	1636	1640	1
1683	1641	1642	2
1684	1641	1643	1
1685	1642	1644	1
1686	1642	1649	1
1687	1643	1645	1
1688	1643	1646	1
1689	1643	1671	1
1690	1645	1647	1
1691	1645	1730	1
1692	1645	1734	1
1693	1647	1648	1
1694	1647	1649	1
1695	1647	1670	1
1696	1649	1650	2
1697	1650	1651	1
1698	1650	1652	1
1699	1652	1653	2
1700	1652	1654	1
1701	1653	1655	1
1702	1653	1669	1
1703	1655	1656	2
1704	1655	1657	1
1705	1656	1658	1
1706	1656	1659	1
1707	1657	1660	1
1708	1657	1661	1
1709	1657	1662	1
1710	1658	1660	1
1711	1658	1663	2
1712	1659	1664	3
1713	1661	1738	1
1714	1661	1739	2
1715	1662	1748	1
1716	1662	1749	1
1717	1662	1750	1
1718	1663	1665	1
1719	1663	1666	1
1720	1665	1667	3
1721	1666	1668	3
1722	1672	1675	1
1723	1672	1727	1
1724	1672	1728	1
1725	1673	1674	1
1726	1673	1723	1
1727	1673	1726	1
1728	1674	1677	1
1729	1674	1724	1
1730	1674	1725	1
1731	1675	1676	1
1732	1675	1722	1
1733	1675	1729	1
1734	1676	1720	1
1735	1677	1721	1
1736	1678	1684	1
1737	1678	1696	1
1738	1678	1700	1
1739	1678	1721	1
1740	1679	1680	1
1741	1679	1688	1
1742	1679	1692	1
1743	1679	1720	1
1744	1680	1681	1
1745	1680	1682	1
1746	1680	1683	1
1747	1684	1685	1
1748	1684	1686	1
1749	1684	1687	1
1750	1688	1689	1
1751	1688	1690	1
1752	1688	1691	1
1753	1692	1693	1
1754	1692	1694	1
1755	1692	1695	1
1756	1696	1697	1
1757	1696	1698	1
1758	1696	1699	1
1759	1700	1701	1
1760	1700	1702	1
1761	1700	1703	1
1762	1704	1705	1
1763	1704	1706	1
1764	1704	1707	1
1765	1704	1721	1
1766	1708	1709	1
1767	1708	1710	1
1768	1708	1711	1
1769	1708	1721	1
1770	1712	1713	1
1771	1712	1714	1
1772	1712	1715	1
1773	1712	1720	1
1774	1716	1717	1
1775	1716	1718	1
1776	1716	1719	1
1777	1716	1720	1
1778	1730	1731	1
1779	1730	1732	1
1780	1730	1733	1
1781	1734	1735	1
1782	1734	1736	1
1783	1734	1737	1
1784	1738	1740	2
1785	1738	1741	1
1786	1739	1742	1
1787	1739	1743	1
1788	1740	1744	1
1789	1740	1745	1
1790	1742	1744	2
1791	1742	1747	1
1792	1744	1746	1
1793	1751	1752	2
1794	1751	1754	1
1795	1751	1759	1
1796	1752	1753	1
1797	1752	1766	1
1798	1755	1756	1
1799	1755	1810	1
1800	1755	1811	1
1801	1756	1757	1
1802	1756	1761	1
1803	1757	1758	2
1804	1757	1762	1
1805	1758	1759	1
1806	1758	1763	1
1807	1759	1760	2
1808	1760	1761	1
1809	1760	1764	1
1810	1761	1765	1
1811	1766	1767	2
1812	1766	1768	1
1813	1767	1769	1
1814	1767	1774	1
1815	1768	1770	1
1816	1768	1771	1
1817	1768	1809	1
1818	1770	1772	1
1819	1770	1868	1
1820	1770	1872	1
1821	1772	1773	1
1822	1772	1774	1
1823	1772	1808	1
1824	1774	1775	2
1825	1775	1776	1
1826	1775	1777	1
1827	1777	1778	2
1828	1777	1779	1
1829	1778	1780	1
1830	1778	1807	1
1831	1780	1781	2
1832	1780	1782	1
1833	1781	1783	1
1834	1781	1784	1
1835	1782	1785	1
1836	1782	1786	1
1837	1782	1787	1
1838	1783	1785	1
1839	1783	1788	2
1840	1784	1789	3
1841	1786	1790	1
1842	1786	1791	1
1843	1786	1792	1
1844	1787	1793	1
1845	1787	1794	2
1846	1788	1795	1
1847	1788	1796	1
1848	1793	1797	1
1849	1793	1798	2
1850	1794	1799	1
1851	1794	1800	1
1852	1795	1801	3
1853	1796	1802	3
1854	1798	1803	1
1855	1798	1804	1
1856	1799	1804	2
1857	1799	1805	1
1858	1804	1806	1
1859	1810	1813	1
1860	1810	1865	1
1861	1810	1866	1
1862	1811	1812	1
1863	1811	1861	1
1864	1811	1864	1
1865	1812	1815	1
1866	1812	1862	1
1867	1812	1863	1
1868	1813	1814	1
1869	1813	1860	1
1870	1813	1867	1
1871	1814	1858	1
1872	1815	1859	1
1873	1816	1822	1
1874	1816	1834	1
1875	1816	1838	1
1876	1816	1859	1
1877	1817	1818	1
1878	1817	1826	1
1879	1817	1830	1
1880	1817	1858	1
1881	1818	1819	1
1882	1818	1820	1
1883	1818	1821	1
1884	1822	1823	1
1885	1822	1824	1
1886	1822	1825	1
1887	1826	1827	1
1888	1826	1828	1
1889	1826	1829	1
1890	1830	1831	1
1891	1830	1832	1
1892	1830	1833	1
1893	1834	1835	1
1894	1834	1836	1
1895	1834	1837	1
1896	1838	1839	1
1897	1838	1840	1
1898	1838	1841	1
1899	1842	1843	1
1900	1842	1844	1
1901	1842	1845	1
1902	1842	1859	1
1903	1846	1847	1
1904	1846	1848	1
1905	1846	1849	1
1906	1846	1859	1
1907	1850	1851	1
1908	1850	1852	1
1909	1850	1853	1
1910	1850	1858	1
1911	1854	1855	1
1912	1854	1856	1
1913	1854	1857	1
1914	1854	1858	1
1915	1868	1869	1
1916	1868	1870	1
1917	1868	1871	1
1918	1872	1873	1
1919	1872	1874	1
1920	1872	1875	1
1921	1876	1877	2
1922	1876	1879	1
1923	1876	1884	1
1924	1877	1878	1
1925	1877	1891	1
1926	1880	1881	1
1927	1880	1922	1
1928	1880	1923	1
1929	1881	1882	1
1930	1881	1886	1
1931	1882	1883	2
1932	1882	1887	1
1933	1883	1884	1
1934	1883	1888	1
1935	1884	1885	2
1936	1885	1886	1
1937	1885	1889	1
1938	1886	1890	1
1939	1891	1892	2
1940	1891	1893	1
1941	1892	1894	1
1942	1892	1899	1
1943	1893	1895	1
1944	1893	1896	1
1945	1893	1921	1
1946	1895	1897	1
1947	1895	1980	1
1948	1895	1984	1
1949	1897	1898	1
1950	1897	1899	1
1951	1897	1920	1
1952	1899	1900	2
1953	1900	1901	1
1954	1900	1902	1
1955	1902	1903	2
1956	1902	1904	1
1957	1903	1905	1
1958	1903	1919	1
1959	1905	1906	2
1960	1905	1907	1
1961	1906	1908	1
1962	1906	1909	1
1963	1907	1910	1
1964	1907	1911	1
1965	1907	1912	1
1966	1908	1910	1
1967	1908	1913	2
1968	1909	1914	3
1969	1911	1988	1
1970	1911	1989	2
1971	1912	1998	1
1972	1912	1999	1
1973	1912	2000	1
1974	1913	1915	1
1975	1913	1916	1
1976	1915	1917	3
1977	1916	1918	3
1978	1922	1925	1
1979	1922	1977	1
1980	1922	1978	1
1981	1923	1924	1
1982	1923	1973	1
1983	1923	1976	1
1984	1924	1927	1
1985	1924	1974	1
1986	1924	1975	1
1987	1925	1926	1
1988	1925	1972	1
1989	1925	1979	1
1990	1926	1970	1
1991	1927	1971	1
1992	1928	1934	1
1993	1928	1946	1
1994	1928	1950	1
1995	1928	1971	1
1996	1929	1930	1
1997	1929	1938	1
1998	1929	1942	1
1999	1929	1970	1
2000	1930	1931	1
2001	1930	1932	1
2002	1930	1933	1
2003	1934	1935	1
2004	1934	1936	1
2005	1934	1937	1
2006	1938	1939	1
2007	1938	1940	1
2008	1938	1941	1
2009	1942	1943	1
2010	1942	1944	1
2011	1942	1945	1
2012	1946	1947	1
2013	1946	1948	1
2014	1946	1949	1
2015	1950	1951	1
2016	1950	1952	1
2017	1950	1953	1
2018	1954	1955	1
2019	1954	1956	1
2020	1954	1957	1
2021	1954	1971	1
2022	1958	1959	1
2023	1958	1960	1
2024	1958	1961	1
2025	1958	1971	1
2026	1962	1963	1
2027	1962	1964	1
2028	1962	1965	1
2029	1962	1970	1
2030	1966	1967	1
2031	1966	1968	1
2032	1966	1969	1
2033	1966	1970	1
2034	1980	1981	1
2035	1980	1982	1
2036	1980	1983	1
2037	1984	1985	1
2038	1984	1986	1
2039	1984	1987	1
2040	1988	1990	2
2041	1988	1991	1
2042	1989	1992	1
2043	1989	1993	1
2044	1990	1994	1
2045	1990	1995	1
2046	1992	1994	2
2047	1992	1997	1
2048	1994	1996	1
2049	2001	2002	2
2050	2001	2004	1
2051	2001	2009	1
2052	2002	2003	1
2053	2002	2016	1
2054	2005	2006	1
2055	2005	2060	1
2056	2005	2061	1
2057	2006	2007	1
2058	2006	2011	1
2059	2007	2008	2
2060	2007	2012	1
2061	2008	2009	1
2062	2008	2013	1
2063	2009	2010	2
2064	2010	2011	1
2065	2010	2014	1
2066	2011	2015	1
2067	2016	2017	2
2068	2016	2018	1
2069	2017	2019	1
2070	2017	2024	1
2071	2018	2020	1
2072	2018	2021	1
2073	2018	2059	1
2074	2020	2022	1
2075	2020	2118	1
2076	2020	2122	1
2077	2022	2023	1
2078	2022	2024	1
2079	2022	2058	1
2080	2024	2025	2
2081	2025	2026	1
2082	2025	2027	1
2083	2027	2028	2
2084	2027	2029	1
2085	2028	2030	1
2086	2028	2057	1
2087	2030	2031	2
2088	2030	2032	1
2089	2031	2033	1
2090	2031	2034	1
2091	2032	2035	1
2092	2032	2036	1
2093	2032	2037	1
2094	2033	2035	1
2095	2033	2038	2
2096	2034	2039	3
2097	2036	2040	1
2098	2036	2041	1
2099	2036	2042	1
2100	2037	2043	1
2101	2037	2044	2
2102	2038	2045	1
2103	2038	2046	1
2104	2043	2047	1
2105	2043	2048	2
2106	2044	2049	1
2107	2044	2050	1
2108	2045	2051	3
2109	2046	2052	3
2110	2048	2053	1
2111	2048	2054	1
2112	2049	2054	2
2113	2049	2055	1
2114	2054	2056	1
2115	2060	2063	1
2116	2060	2115	1
2117	2060	2116	1
2118	2061	2062	1
2119	2061	2111	1
2120	2061	2114	1
2121	2062	2065	1
2122	2062	2112	1
2123	2062	2113	1
2124	2063	2064	1
2125	2063	2110	1
2126	2063	2117	1
2127	2064	2108	1
2128	2065	2109	1
2129	2066	2072	1
2130	2066	2084	1
2131	2066	2088	1
2132	2066	2109	1
2133	2067	2068	1
2134	2067	2076	1
2135	2067	2080	1
2136	2067	2108	1
2137	2068	2069	1
2138	2068	2070	1
2139	2068	2071	1
2140	2072	2073	1
2141	2072	2074	1
2142	2072	2075	1
2143	2076	2077	1
2144	2076	2078	1
2145	2076	2079	1
2146	2080	2081	1
2147	2080	2082	1
2148	2080	2083	1
2149	2084	2085	1
2150	2084	2086	1
2151	2084	2087	1
2152	2088	2089	1
2153	2088	2090	1
2154	2088	2091	1
2155	2092	2093	1
2156	2092	2094	1
2157	2092	2095	1
2158	2092	2109	1
2159	2096	2097	1
2160	2096	2098	1
2161	2096	2099	1
2162	2096	2109	1
2163	2100	2101	1
2164	2100	2102	1
2165	2100	2103	1
2166	2100	2108	1
2167	2104	2105	1
2168	2104	2106	1
2169	2104	2107	1
2170	2104	2108	1
2171	2118	2119	1
2172	2118	2120	1
2173	2118	2121	1
2174	2122	2123	1
2175	2122	2124	1
2176	2122	2125	1
2177	2126	2127	2
2178	2126	2129	1
2179	2126	2134	1
2180	2127	2128	1
2181	2127	2141	1
2182	2130	2131	1
2183	2130	2185	1
2184	2130	2186	1
2185	2131	2132	1
2186	2131	2136	1
2187	2132	2133	2
2188	2132	2137	1
2189	2133	2134	1
2190	2133	2138	1
2191	2134	2135	2
2192	2135	2136	1
2193	2135	2139	1
2194	2136	2140	1
2195	2141	2142	2
2196	2141	2143	1
2197	2142	2144	1
2198	2142	2149	1
2199	2143	2145	1
2200	2143	2146	1
2201	2143	2184	1
2202	2145	2147	1
2203	2145	2243	1
2204	2145	2247	1
2205	2147	2148	1
2206	2147	2149	1
2207	2147	2183	1
2208	2149	2150	2
2209	2150	2151	1
2210	2150	2152	1
2211	2152	2153	2
2212	2152	2154	1
2213	2153	2155	1
2214	2153	2182	1
2215	2155	2156	2
2216	2155	2157	1
2217	2156	2158	1
2218	2156	2159	1
2219	2157	2160	1
2220	2157	2161	1
2221	2157	2162	1
2222	2158	2160	1
2223	2158	2163	2
2224	2159	2164	3
2225	2161	2165	1
2226	2161	2166	1
2227	2161	2167	1
2228	2162	2168	1
2229	2162	2169	2
2230	2163	2170	1
2231	2163	2171	1
2232	2168	2172	1
2233	2168	2173	2
2234	2169	2174	1
2235	2169	2175	1
2236	2170	2176	3
2237	2171	2177	3
2238	2173	2178	1
2239	2173	2179	1
2240	2174	2179	2
2241	2174	2180	1
2242	2179	2181	1
2243	2185	2188	1
2244	2185	2240	1
2245	2185	2241	1
2246	2186	2187	1
2247	2186	2236	1
2248	2186	2239	1
2249	2187	2190	1
2250	2187	2237	1
2251	2187	2238	1
2252	2188	2189	1
2253	2188	2235	1
2254	2188	2242	1
2255	2189	2233	1
2256	2190	2234	1
2257	2191	2197	1
2258	2191	2209	1
2259	2191	2213	1
2260	2191	2234	1
2261	2192	2193	1
2262	2192	2201	1
2263	2192	2205	1
2264	2192	2233	1
2265	2193	2194	1
2266	2193	2195	1
2267	2193	2196	1
2268	2197	2198	1
2269	2197	2199	1
2270	2197	2200	1
2271	2201	2202	1
2272	2201	2203	1
2273	2201	2204	1
2274	2205	2206	1
2275	2205	2207	1
2276	2205	2208	1
2277	2209	2210	1
2278	2209	2211	1
2279	2209	2212	1
2280	2213	2214	1
2281	2213	2215	1
2282	2213	2216	1
2283	2217	2218	1
2284	2217	2219	1
2285	2217	2220	1
2286	2217	2234	1
2287	2221	2222	1
2288	2221	2223	1
2289	2221	2224	1
2290	2221	2234	1
2291	2225	2226	1
2292	2225	2227	1
2293	2225	2228	1
2294	2225	2233	1
2295	2229	2230	1
2296	2229	2231	1
2297	2229	2232	1
2298	2229	2233	1
2299	2243	2244	1
2300	2243	2245	1
2301	2243	2246	1
2302	2247	2248	1
2303	2247	2249	1
2304	2247	2250	1
2305	2251	2252	2
2306	2251	2254	1
2307	2251	2259	1
2308	2252	2253	1
2309	2252	2266	1
2310	2255	2256	1
2311	2255	2310	1
2312	2255	2311	1
2313	2256	2257	1
2314	2256	2261	1
2315	2257	2258	2
2316	2257	2262	1
2317	2258	2259	1
2318	2258	2263	1
2319	2259	2260	2
2320	2260	2261	1
2321	2260	2264	1
2322	2261	2265	1
2323	2266	2267	2
2324	2266	2268	1
2325	2267	2269	1
2326	2267	2274	1
2327	2268	2270	1
2328	2268	2271	1
2329	2268	2309	1
2330	2270	2272	1
2331	2270	2368	1
2332	2270	2372	1
2333	2272	2273	1
2334	2272	2274	1
2335	2272	2308	1
2336	2274	2275	2
2337	2275	2276	1
2338	2275	2277	1
2339	2277	2278	2
2340	2277	2279	1
2341	2278	2280	1
2342	2278	2307	1
2343	2280	2281	2
2344	2280	2282	1
2345	2281	2283	1
2346	2281	2284	1
2347	2282	2285	1
2348	2282	2286	1
2349	2282	2287	1
2350	2283	2285	1
2351	2283	2288	2
2352	2284	2289	3
2353	2286	2290	1
2354	2286	2291	1
2355	2286	2292	1
2356	2287	2293	1
2357	2287	2294	2
2358	2288	2295	1
2359	2288	2296	1
2360	2293	2297	1
2361	2293	2298	2
2362	2294	2299	1
2363	2294	2300	1
2364	2295	2301	3
2365	2296	2302	3
2366	2298	2303	1
2367	2298	2304	1
2368	2299	2304	2
2369	2299	2305	1
2370	2304	2306	1
2371	2310	2313	1
2372	2310	2365	1
2373	2310	2366	1
2374	2311	2312	1
2375	2311	2361	1
2376	2311	2364	1
2377	2312	2315	1
2378	2312	2362	1
2379	2312	2363	1
2380	2313	2314	1
2381	2313	2360	1
2382	2313	2367	1
2383	2314	2358	1
2384	2315	2359	1
2385	2316	2322	1
2386	2316	2334	1
2387	2316	2338	1
2388	2316	2359	1
2389	2317	2318	1
2390	2317	2326	1
2391	2317	2330	1
2392	2317	2358	1
2393	2318	2319	1
2394	2318	2320	1
2395	2318	2321	1
2396	2322	2323	1
2397	2322	2324	1
2398	2322	2325	1
2399	2326	2327	1
2400	2326	2328	1
2401	2326	2329	1
2402	2330	2331	1
2403	2330	2332	1
2404	2330	2333	1
2405	2334	2335	1
2406	2334	2336	1
2407	2334	2337	1
2408	2338	2339	1
2409	2338	2340	1
2410	2338	2341	1
2411	2342	2343	1
2412	2342	2344	1
2413	2342	2345	1
2414	2342	2359	1
2415	2346	2347	1
2416	2346	2348	1
2417	2346	2349	1
2418	2346	2359	1
2419	2350	2351	1
2420	2350	2352	1
2421	2350	2353	1
2422	2350	2358	1
2423	2354	2355	1
2424	2354	2356	1
2425	2354	2357	1
2426	2354	2358	1
2427	2368	2369	1
2428	2368	2370	1
2429	2368	2371	1
2430	2372	2373	1
2431	2372	2374	1
2432	2372	2375	1
2433	2376	2377	2
2434	2376	2379	1
2435	2376	2384	1
2436	2377	2378	1
2437	2377	2391	1
2438	2380	2381	1
2439	2380	2422	1
2440	2380	2423	1
2441	2381	2382	1
2442	2381	2386	1
2443	2382	2383	2
2444	2382	2387	1
2445	2383	2384	1
2446	2383	2388	1
2447	2384	2385	2
2448	2385	2386	1
2449	2385	2389	1
2450	2386	2390	1
2451	2391	2392	2
2452	2391	2393	1
2453	2392	2394	1
2454	2392	2399	1
2455	2393	2395	1
2456	2393	2396	1
2457	2393	2421	1
2458	2395	2397	1
2459	2395	2480	1
2460	2395	2484	1
2461	2397	2398	1
2462	2397	2399	1
2463	2397	2420	1
2464	2399	2400	2
2465	2400	2401	1
2466	2400	2402	1
2467	2402	2403	2
2468	2402	2404	1
2469	2403	2405	1
2470	2403	2419	1
2471	2405	2406	2
2472	2405	2407	1
2473	2406	2408	1
2474	2406	2409	1
2475	2407	2410	1
2476	2407	2411	1
2477	2407	2412	1
2478	2408	2410	1
2479	2408	2413	2
2480	2409	2414	3
2481	2411	2488	1
2482	2411	2489	2
2483	2412	2498	1
2484	2412	2499	1
2485	2412	2500	1
2486	2413	2415	1
2487	2413	2416	1
2488	2415	2417	3
2489	2416	2418	3
2490	2422	2425	1
2491	2422	2477	1
2492	2422	2478	1
2493	2423	2424	1
2494	2423	2473	1
2495	2423	2476	1
2496	2424	2427	1
2497	2424	2474	1
2498	2424	2475	1
2499	2425	2426	1
2500	2425	2472	1
2501	2425	2479	1
2502	2426	2470	1
2503	2427	2471	1
2504	2428	2434	1
2505	2428	2446	1
2506	2428	2450	1
2507	2428	2471	1
2508	2429	2430	1
2509	2429	2438	1
2510	2429	2442	1
2511	2429	2470	1
2512	2430	2431	1
2513	2430	2432	1
2514	2430	2433	1
2515	2434	2435	1
2516	2434	2436	1
2517	2434	2437	1
2518	2438	2439	1
2519	2438	2440	1
2520	2438	2441	1
2521	2442	2443	1
2522	2442	2444	1
2523	2442	2445	1
2524	2446	2447	1
2525	2446	2448	1
2526	2446	2449	1
2527	2450	2451	1
2528	2450	2452	1
2529	2450	2453	1
2530	2454	2455	1
2531	2454	2456	1
2532	2454	2457	1
2533	2454	2471	1
2534	2458	2459	1
2535	2458	2460	1
2536	2458	2461	1
2537	2458	2471	1
2538	2462	2463	1
2539	2462	2464	1
2540	2462	2465	1
2541	2462	2470	1
2542	2466	2467	1
2543	2466	2468	1
2544	2466	2469	1
2545	2466	2470	1
2546	2480	2481	1
2547	2480	2482	1
2548	2480	2483	1
2549	2484	2485	1
2550	2484	2486	1
2551	2484	2487	1
2552	2488	2490	2
2553	2488	2491	1
2554	2489	2492	1
2555	2489	2493	1
2556	2490	2494	1
2557	2490	2495	1
2558	2492	2494	2
2559	2492	2497	1
2560	2494	2496	1
2561	2501	2502	2
2562	2501	2504	1
2563	2501	2509	1
2564	2502	2503	1
2565	2502	2516	1
2566	2505	2506	1
2567	2505	2560	1
2568	2505	2561	1
2569	2506	2507	1
2570	2506	2511	1
2571	2507	2508	2
2572	2507	2512	1
2573	2508	2509	1
2574	2508	2513	1
2575	2509	2510	2
2576	2510	2511	1
2577	2510	2514	1
2578	2511	2515	1
2579	2516	2517	2
2580	2516	2518	1
2581	2517	2519	1
2582	2517	2524	1
2583	2518	2520	1
2584	2518	2521	1
2585	2518	2559	1
2586	2520	2522	1
2587	2520	2618	1
2588	2520	2622	1
2589	2522	2523	1
2590	2522	2524	1
2591	2522	2558	1
2592	2524	2525	2
2593	2525	2526	1
2594	2525	2527	1
2595	2527	2528	2
2596	2527	2529	1
2597	2528	2530	1
2598	2528	2557	1
2599	2530	2531	2
2600	2530	2532	1
2601	2531	2533	1
2602	2531	2534	1
2603	2532	2535	1
2604	2532	2536	1
2605	2532	2537	1
2606	2533	2535	1
2607	2533	2538	2
2608	2534	2539	3
2609	2536	2540	1
2610	2536	2541	1
2611	2536	2542	1
2612	2537	2543	1
2613	2537	2544	2
2614	2538	2545	1
2615	2538	2546	1
2616	2543	2547	1
2617	2543	2548	2
2618	2544	2549	1
2619	2544	2550	1
2620	2545	2551	3
2621	2546	2552	3
2622	2548	2553	1
2623	2548	2554	1
2624	2549	2554	2
2625	2549	2555	1
2626	2554	2556	1
2627	2560	2563	1
2628	2560	2615	1
2629	2560	2616	1
2630	2561	2562	1
2631	2561	2611	1
2632	2561	2614	1
2633	2562	2565	1
2634	2562	2612	1
2635	2562	2613	1
2636	2563	2564	1
2637	2563	2610	1
2638	2563	2617	1
2639	2564	2608	1
2640	2565	2609	1
2641	2566	2572	1
2642	2566	2584	1
2643	2566	2588	1
2644	2566	2609	1
2645	2567	2568	1
2646	2567	2576	1
2647	2567	2580	1
2648	2567	2608	1
2649	2568	2569	1
2650	2568	2570	1
2651	2568	2571	1
2652	2572	2573	1
2653	2572	2574	1
2654	2572	2575	1
2655	2576	2577	1
2656	2576	2578	1
2657	2576	2579	1
2658	2580	2581	1
2659	2580	2582	1
2660	2580	2583	1
2661	2584	2585	1
2662	2584	2586	1
2663	2584	2587	1
2664	2588	2589	1
2665	2588	2590	1
2666	2588	2591	1
2667	2592	2593	1
2668	2592	2594	1
2669	2592	2595	1
2670	2592	2609	1
2671	2596	2597	1
2672	2596	2598	1
2673	2596	2599	1
2674	2596	2609	1
2675	2600	2601	1
2676	2600	2602	1
2677	2600	2603	1
2678	2600	2608	1
2679	2604	2605	1
2680	2604	2606	1
2681	2604	2607	1
2682	2604	2608	1
2683	2618	2619	1
2684	2618	2620	1
2685	2618	2621	1
2686	2622	2623	1
2687	2622	2624	1
2688	2622	2625	1
2689	2626	2627	2
2690	2626	2629	1
2691	2626	2634	1
2692	2627	2628	1
2693	2627	2641	1
2694	2630	2631	1
2695	2630	2672	1
2696	2630	2673	1
2697	2631	2632	1
2698	2631	2636	1
2699	2632	2633	2
2700	2632	2637	1
2701	2633	2634	1
2702	2633	2638	1
2703	2634	2635	2
2704	2635	2636	1
2705	2635	2639	1
2706	2636	2640	1
2707	2641	2642	2
2708	2641	2643	1
2709	2642	2644	1
2710	2642	2649	1
2711	2643	2645	1
2712	2643	2646	1
2713	2643	2671	1
2714	2645	2647	1
2715	2645	2730	1
2716	2645	2734	1
2717	2647	2648	1
2718	2647	2649	1
2719	2647	2670	1
2720	2649	2650	2
2721	2650	2651	1
2722	2650	2652	1
2723	2652	2653	2
2724	2652	2654	1
2725	2653	2655	1
2726	2653	2669	1
2727	2655	2656	2
2728	2655	2657	1
2729	2656	2658	1
2730	2656	2659	1
2731	2657	2660	1
2732	2657	2661	1
2733	2657	2662	1
2734	2658	2660	1
2735	2658	2663	2
2736	2659	2664	3
2737	2661	2738	1
2738	2661	2739	2
2739	2662	2748	1
2740	2662	2749	1
2741	2662	2750	1
2742	2663	2665	1
2743	2663	2666	1
2744	2665	2667	3
2745	2666	2668	3
2746	2672	2675	1
2747	2672	2727	1
2748	2672	2728	1
2749	2673	2674	1
2750	2673	2723	1
2751	2673	2726	1
2752	2674	2677	1
2753	2674	2724	1
2754	2674	2725	1
2755	2675	2676	1
2756	2675	2722	1
2757	2675	2729	1
2758	2676	2720	1
2759	2677	2721	1
2760	2678	2684	1
2761	2678	2696	1
2762	2678	2700	1
2763	2678	2721	1
2764	2679	2680	1
2765	2679	2688	1
2766	2679	2692	1
2767	2679	2720	1
2768	2680	2681	1
2769	2680	2682	1
2770	2680	2683	1
2771	2684	2685	1
2772	2684	2686	1
2773	2684	2687	1
2774	2688	2689	1
2775	2688	2690	1
2776	2688	2691	1
2777	2692	2693	1
2778	2692	2694	1
2779	2692	2695	1
2780	2696	2697	1
2781	2696	2698	1
2782	2696	2699	1
2783	2700	2701	1
2784	2700	2702	1
2785	2700	2703	1
2786	2704	2705	1
2787	2704	2706	1
2788	2704	2707	1
2789	2704	2721	1
2790	2708	2709	1
2791	2708	2710	1
2792	2708	2711	1
2793	2708	2721	1
2794	2712	2713	1
2795	2712	2714	1
2796	2712	2715	1
2797	2712	2720	1
2798	2716	2717	1
2799	2716	2718	1
2800	2716	2719	1
2801	2716	2720	1
2802	2730	2731	1
2803	2730	2732	1
2804	2730	2733	1
2805	2734	2735	1
2806	2734	2736	1
2807	2734	2737	1
2808	2738	2740	2
2809	2738	2741	1
2810	2739	2742	1
2811	2739	2743	1
2812	2740	2744	1
2813	2740	2745	1
2814	2742	2744	2
2815	2742	2747	1
2816	2744	2746	1
2817	2751	2752	2
2818	2751	2754	1
2819	2751	2759	1
2820	2752	2753	1
2821	2752	2766	1
2822	2755	2756	1
2823	2755	2797	1
2824	2755	2798	1
2825	2756	2757	1
2826	2756	2761	1
2827	2757	2758	2
2828	2757	2762	1
2829	2758	2759	1
2830	2758	2763	1
2831	2759	2760	2
2832	2760	2761	1
2833	2760	2764	1
2834	2761	2765	1
2835	2766	2767	2
2836	2766	2768	1
2837	2767	2769	1
2838	2767	2774	1
2839	2768	2770	1
2840	2768	2771	1
2841	2768	2796	1
2842	2770	2772	1
2843	2770	2855	1
2844	2770	2859	1
2845	2772	2773	1
2846	2772	2774	1
2847	2772	2795	1
2848	2774	2775	2
2849	2775	2776	1
2850	2775	2777	1
2851	2777	2778	2
2852	2777	2779	1
2853	2778	2780	1
2854	2778	2794	1
2855	2780	2781	2
2856	2780	2782	1
2857	2781	2783	1
2858	2781	2784	1
2859	2782	2785	1
2860	2782	2786	1
2861	2782	2787	1
2862	2783	2785	1
2863	2783	2788	2
2864	2784	2789	3
2865	2786	2863	1
2866	2786	2864	2
2867	2787	2873	1
2868	2787	2874	1
2869	2787	2875	1
2870	2788	2790	1
2871	2788	2791	1
2872	2790	2792	3
2873	2791	2793	3
2874	2797	2800	1
2875	2797	2852	1
2876	2797	2853	1
2877	2798	2799	1
2878	2798	2848	1
2879	2798	2851	1
2880	2799	2802	1
2881	2799	2849	1
2882	2799	2850	1
2883	2800	2801	1
2884	2800	2847	1
2885	2800	2854	1
2886	2801	2845	1
2887	2802	2846	1
2888	2803	2809	1
2889	2803	2821	1
2890	2803	2825	1
2891	2803	2846	1
2892	2804	2805	1
2893	2804	2813	1
2894	2804	2817	1
2895	2804	2845	1
2896	2805	2806	1
2897	2805	2807	1
2898	2805	2808	1
2899	2809	2810	1
2900	2809	2811	1
2901	2809	2812	1
2902	2813	2814	1
2903	2813	2815	1
2904	2813	2816	1
2905	2817	2818	1
2906	2817	2819	1
2907	2817	2820	1
2908	2821	2822	1
2909	2821	2823	1
2910	2821	2824	1
2911	2825	2826	1
2912	2825	2827	1
2913	2825	2828	1
2914	2829	2830	1
2915	2829	2831	1
2916	2829	2832	1
2917	2829	2846	1
2918	2833	2834	1
2919	2833	2835	1
2920	2833	2836	1
2921	2833	2846	1
2922	2837	2838	1
2923	2837	2839	1
2924	2837	2840	1
2925	2837	2845	1
2926	2841	2842	1
2927	2841	2843	1
2928	2841	2844	1
2929	2841	2845	1
2930	2855	2856	1
2931	2855	2857	1
2932	2855	2858	1
2933	2859	2860	1
2934	2859	2861	1
2935	2859	2862	1
2936	2863	2865	2
2937	2863	2866	1
2938	2864	2867	1
2939	2864	2868	1
2940	2865	2869	1
2941	2865	2870	1
2942	2867	2869	2
2943	2867	2872	1
2944	2869	2871	1
2945	2876	2877	2
2946	2876	2879	1
2947	2876	2884	1
2948	2877	2878	1
2949	2877	2891	1
2950	2880	2881	1
2951	2880	2935	1
2952	2880	2936	1
2953	2881	2882	1
2954	2881	2886	1
2955	2882	2883	2
2956	2882	2887	1
2957	2883	2884	1
2958	2883	2888	1
2959	2884	2885	2
2960	2885	2886	1
2961	2885	2889	1
2962	2886	2890	1
2963	2891	2892	2
2964	2891	2893	1
2965	2892	2894	1
2966	2892	2899	1
2967	2893	2895	1
2968	2893	2896	1
2969	2893	2934	1
2970	2895	2897	1
2971	2895	2993	1
2972	2895	2997	1
2973	2897	2898	1
2974	2897	2899	1
2975	2897	2933	1
2976	2899	2900	2
2977	2900	2901	1
2978	2900	2902	1
2979	2902	2903	2
2980	2902	2904	1
2981	2903	2905	1
2982	2903	2932	1
2983	2905	2906	2
2984	2905	2907	1
2985	2906	2908	1
2986	2906	2909	1
2987	2907	2910	1
2988	2907	2911	1
2989	2907	2912	1
2990	2908	2910	1
2991	2908	2913	2
2992	2909	2914	3
2993	2911	2915	1
2994	2911	2916	1
2995	2911	2917	1
2996	2912	2918	1
2997	2912	2919	2
2998	2913	2920	1
2999	2913	2921	1
3000	2918	2922	1
3001	2918	2923	2
3002	2919	2924	1
3003	2919	2925	1
3004	2920	2926	3
3005	2921	2927	3
3006	2923	2928	1
3007	2923	2929	1
3008	2924	2929	2
3009	2924	2930	1
3010	2929	2931	1
3011	2935	2938	1
3012	2935	2990	1
3013	2935	2991	1
3014	2936	2937	1
3015	2936	2986	1
3016	2936	2989	1
3017	2937	2940	1
3018	2937	2987	1
3019	2937	2988	1
3020	2938	2939	1
3021	2938	2985	1
3022	2938	2992	1
3023	2939	2983	1
3024	2940	2984	1
3025	2941	2947	1
3026	2941	2959	1
3027	2941	2963	1
3028	2941	2984	1
3029	2942	2943	1
3030	2942	2951	1
3031	2942	2955	1
3032	2942	2983	1
3033	2943	2944	1
3034	2943	2945	1
3035	2943	2946	1
3036	2947	2948	1
3037	2947	2949	1
3038	2947	2950	1
3039	2951	2952	1
3040	2951	2953	1
3041	2951	2954	1
3042	2955	2956	1
3043	2955	2957	1
3044	2955	2958	1
3045	2959	2960	1
3046	2959	2961	1
3047	2959	2962	1
3048	2963	2964	1
3049	2963	2965	1
3050	2963	2966	1
3051	2967	2968	1
3052	2967	2969	1
3053	2967	2970	1
3054	2967	2984	1
3055	2971	2972	1
3056	2971	2973	1
3057	2971	2974	1
3058	2971	2984	1
3059	2975	2976	1
3060	2975	2977	1
3061	2975	2978	1
3062	2975	2983	1
3063	2979	2980	1
3064	2979	2981	1
3065	2979	2982	1
3066	2979	2983	1
3067	2993	2994	1
3068	2993	2995	1
3069	2993	2996	1
3070	2997	2998	1
3071	2997	2999	1
3072	2997	3000	1
3073	3001	3002	2
3074	3001	3004	1
3075	3001	3009	1
3076	3002	3003	1
3077	3002	3016	1
3078	3005	3006	1
3079	3005	3060	1
3080	3005	3061	1
3081	3006	3007	1
3082	3006	3011	1
3083	3007	3008	2
3084	3007	3012	1
3085	3008	3009	1
3086	3008	3013	1
3087	3009	3010	2
3088	3010	3011	1
3089	3010	3014	1
3090	3011	3015	1
3091	3016	3017	2
3092	3016	3018	1
3093	3017	3019	1
3094	3017	3024	1
3095	3018	3020	1
3096	3018	3021	1
3097	3018	3059	1
3098	3020	3022	1
3099	3020	3118	1
3100	3020	3122	1
3101	3022	3023	1
3102	3022	3024	1
3103	3022	3058	1
3104	3024	3025	2
3105	3025	3026	1
3106	3025	3027	1
3107	3027	3028	2
3108	3027	3029	1
3109	3028	3030	1
3110	3028	3057	1
3111	3030	3031	2
3112	3030	3032	1
3113	3031	3033	1
3114	3031	3034	1
3115	3032	3035	1
3116	3032	3036	1
3117	3032	3037	1
3118	3033	3035	1
3119	3033	3038	2
3120	3034	3039	3
3121	3036	3040	1
3122	3036	3041	1
3123	3036	3042	1
3124	3037	3043	1
3125	3037	3044	2
3126	3038	3045	1
3127	3038	3046	1
3128	3043	3047	1
3129	3043	3048	2
3130	3044	3049	1
3131	3044	3050	1
3132	3045	3051	3
3133	3046	3052	3
3134	3048	3053	1
3135	3048	3054	1
3136	3049	3054	2
3137	3049	3055	1
3138	3054	3056	1
3139	3060	3063	1
3140	3060	3115	1
3141	3060	3116	1
3142	3061	3062	1
3143	3061	3111	1
3144	3061	3114	1
3145	3062	3065	1
3146	3062	3112	1
3147	3062	3113	1
3148	3063	3064	1
3149	3063	3110	1
3150	3063	3117	1
3151	3064	3108	1
3152	3065	3109	1
3153	3066	3072	1
3154	3066	3084	1
3155	3066	3088	1
3156	3066	3109	1
3157	3067	3068	1
3158	3067	3076	1
3159	3067	3080	1
3160	3067	3108	1
3161	3068	3069	1
3162	3068	3070	1
3163	3068	3071	1
3164	3072	3073	1
3165	3072	3074	1
3166	3072	3075	1
3167	3076	3077	1
3168	3076	3078	1
3169	3076	3079	1
3170	3080	3081	1
3171	3080	3082	1
3172	3080	3083	1
3173	3084	3085	1
3174	3084	3086	1
3175	3084	3087	1
3176	3088	3089	1
3177	3088	3090	1
3178	3088	3091	1
3179	3092	3093	1
3180	3092	3094	1
3181	3092	3095	1
3182	3092	3109	1
3183	3096	3097	1
3184	3096	3098	1
3185	3096	3099	1
3186	3096	3109	1
3187	3100	3101	1
3188	3100	3102	1
3189	3100	3103	1
3190	3100	3108	1
3191	3104	3105	1
3192	3104	3106	1
3193	3104	3107	1
3194	3104	3108	1
3195	3118	3119	1
3196	3118	3120	1
3197	3118	3121	1
3198	3122	3123	1
3199	3122	3124	1
3200	3122	3125	1
3201	3126	3127	2
3202	3126	3129	1
3203	3126	3134	1
3204	3127	3128	1
3205	3127	3141	1
3206	3130	3131	1
3207	3130	3185	1
3208	3130	3186	1
3209	3131	3132	1
3210	3131	3136	1
3211	3132	3133	2
3212	3132	3137	1
3213	3133	3134	1
3214	3133	3138	1
3215	3134	3135	2
3216	3135	3136	1
3217	3135	3139	1
3218	3136	3140	1
3219	3141	3142	2
3220	3141	3143	1
3221	3142	3144	1
3222	3142	3149	1
3223	3143	3145	1
3224	3143	3146	1
3225	3143	3184	1
3226	3145	3147	1
3227	3145	3243	1
3228	3145	3247	1
3229	3147	3148	1
3230	3147	3149	1
3231	3147	3183	1
3232	3149	3150	2
3233	3150	3151	1
3234	3150	3152	1
3235	3152	3153	2
3236	3152	3154	1
3237	3153	3155	1
3238	3153	3182	1
3239	3155	3156	2
3240	3155	3157	1
3241	3156	3158	1
3242	3156	3159	1
3243	3157	3160	1
3244	3157	3161	1
3245	3157	3162	1
3246	3158	3160	1
3247	3158	3163	2
3248	3159	3164	3
3249	3161	3165	1
3250	3161	3166	1
3251	3161	3167	1
3252	3162	3168	1
3253	3162	3169	2
3254	3163	3170	1
3255	3163	3171	1
3256	3168	3172	1
3257	3168	3173	2
3258	3169	3174	1
3259	3169	3175	1
3260	3170	3176	3
3261	3171	3177	3
3262	3173	3178	1
3263	3173	3179	1
3264	3174	3179	2
3265	3174	3180	1
3266	3179	3181	1
3267	3185	3188	1
3268	3185	3240	1
3269	3185	3241	1
3270	3186	3187	1
3271	3186	3236	1
3272	3186	3239	1
3273	3187	3190	1
3274	3187	3237	1
3275	3187	3238	1
3276	3188	3189	1
3277	3188	3235	1
3278	3188	3242	1
3279	3189	3233	1
3280	3190	3234	1
3281	3191	3197	1
3282	3191	3209	1
3283	3191	3213	1
3284	3191	3234	1
3285	3192	3193	1
3286	3192	3201	1
3287	3192	3205	1
3288	3192	3233	1
3289	3193	3194	1
3290	3193	3195	1
3291	3193	3196	1
3292	3197	3198	1
3293	3197	3199	1
3294	3197	3200	1
3295	3201	3202	1
3296	3201	3203	1
3297	3201	3204	1
3298	3205	3206	1
3299	3205	3207	1
3300	3205	3208	1
3301	3209	3210	1
3302	3209	3211	1
3303	3209	3212	1
3304	3213	3214	1
3305	3213	3215	1
3306	3213	3216	1
3307	3217	3218	1
3308	3217	3219	1
3309	3217	3220	1
3310	3217	3234	1
3311	3221	3222	1
3312	3221	3223	1
3313	3221	3224	1
3314	3221	3234	1
3315	3225	3226	1
3316	3225	3227	1
3317	3225	3228	1
3318	3225	3233	1
3319	3229	3230	1
3320	3229	3231	1
3321	3229	3232	1
3322	3229	3233	1
3323	3243	3244	1
3324	3243	3245	1
3325	3243	3246	1
3326	3247	3248	1
3327	3247	3249	1
3328	3247	3250	1
3329	3251	3252	2
3330	3251	3254	1
3331	3251	3259	1
3332	3252	3253	1
3333	3252	3266	1
3334	3255	3256	1
3335	3255	3310	1
3336	3255	3311	1
3337	3256	3257	1
3338	3256	3261	1
3339	3257	3258	2
3340	3257	3262	1
3341	3258	3259	1
3342	3258	3263	1
3343	3259	3260	2
3344	3260	3261	1
3345	3260	3264	1
3346	3261	3265	1
3347	3266	3267	2
3348	3266	3268	1
3349	3267	3269	1
3350	3267	3274	1
3351	3268	3270	1
3352	3268	3271	1
3353	3268	3309	1
3354	3270	3272	1
3355	3270	3368	1
3356	3270	3372	1
3357	3272	3273	1
3358	3272	3274	1
3359	3272	3308	1
3360	3274	3275	2
3361	3275	3276	1
3362	3275	3277	1
3363	3277	3278	2
3364	3277	3279	1
3365	3278	3280	1
3366	3278	3307	1
3367	3280	3281	2
3368	3280	3282	1
3369	3281	3283	1
3370	3281	3284	1
3371	3282	3285	1
3372	3282	3286	1
3373	3282	3287	1
3374	3283	3285	1
3375	3283	3288	2
3376	3284	3289	3
3377	3286	3290	1
3378	3286	3291	1
3379	3286	3292	1
3380	3287	3293	1
3381	3287	3294	2
3382	3288	3295	1
3383	3288	3296	1
3384	3293	3297	1
3385	3293	3298	2
3386	3294	3299	1
3387	3294	3300	1
3388	3295	3301	3
3389	3296	3302	3
3390	3298	3303	1
3391	3298	3304	1
3392	3299	3304	2
3393	3299	3305	1
3394	3304	3306	1
3395	3310	3313	1
3396	3310	3365	1
3397	3310	3366	1
3398	3311	3312	1
3399	3311	3361	1
3400	3311	3364	1
3401	3312	3315	1
3402	3312	3362	1
3403	3312	3363	1
3404	3313	3314	1
3405	3313	3360	1
3406	3313	3367	1
3407	3314	3358	1
3408	3315	3359	1
3409	3316	3322	1
3410	3316	3334	1
3411	3316	3338	1
3412	3316	3359	1
3413	3317	3318	1
3414	3317	3326	1
3415	3317	3330	1
3416	3317	3358	1
3417	3318	3319	1
3418	3318	3320	1
3419	3318	3321	1
3420	3322	3323	1
3421	3322	3324	1
3422	3322	3325	1
3423	3326	3327	1
3424	3326	3328	1
3425	3326	3329	1
3426	3330	3331	1
3427	3330	3332	1
3428	3330	3333	1
3429	3334	3335	1
3430	3334	3336	1
3431	3334	3337	1
3432	3338	3339	1
3433	3338	3340	1
3434	3338	3341	1
3435	3342	3343	1
3436	3342	3344	1
3437	3342	3345	1
3438	3342	3359	1
3439	3346	3347	1
3440	3346	3348	1
3441	3346	3349	1
3442	3346	3359	1
3443	3350	3351	1
3444	3350	3352	1
3445	3350	3353	1
3446	3350	3358	1
3447	3354	3355	1
3448	3354	3356	1
3449	3354	3357	1
3450	3354	3358	1
3451	3368	3369	1
3452	3368	3370	1
3453	3368	3371	1
3454	3372	3373	1
3455	3372	3374	1
3456	3372	3375	1
3457	3376	3377	2
3458	3376	3379	1
3459	3376	3384	1
3460	3377	3378	1
3461	3377	3391	1
3462	3380	3381	1
3463	3380	3422	1
3464	3380	3423	1
3465	3381	3382	1
3466	3381	3386	1
3467	3382	3383	2
3468	3382	3387	1
3469	3383	3384	1
3470	3383	3388	1
3471	3384	3385	2
3472	3385	3386	1
3473	3385	3389	1
3474	3386	3390	1
3475	3391	3392	2
3476	3391	3393	1
3477	3392	3394	1
3478	3392	3399	1
3479	3393	3395	1
3480	3393	3396	1
3481	3393	3421	1
3482	3395	3397	1
3483	3395	3480	1
3484	3395	3484	1
3485	3397	3398	1
3486	3397	3399	1
3487	3397	3420	1
3488	3399	3400	2
3489	3400	3401	1
3490	3400	3402	1
3491	3402	3403	2
3492	3402	3404	1
3493	3403	3405	1
3494	3403	3419	1
3495	3405	3406	2
3496	3405	3407	1
3497	3406	3408	1
3498	3406	3409	1
3499	3407	3410	1
3500	3407	3411	1
3501	3407	3412	1
3502	3408	3410	1
3503	3408	3413	2
3504	3409	3414	3
3505	3411	3488	1
3506	3411	3489	2
3507	3412	3498	1
3508	3412	3499	1
3509	3412	3500	1
3510	3413	3415	1
3511	3413	3416	1
3512	3415	3417	3
3513	3416	3418	3
3514	3422	3425	1
3515	3422	3477	1
3516	3422	3478	1
3517	3423	3424	1
3518	3423	3473	1
3519	3423	3476	1
3520	3424	3427	1
3521	3424	3474	1
3522	3424	3475	1
3523	3425	3426	1
3524	3425	3472	1
3525	3425	3479	1
3526	3426	3470	1
3527	3427	3471	1
3528	3428	3434	1
3529	3428	3446	1
3530	3428	3450	1
3531	3428	3471	1
3532	3429	3430	1
3533	3429	3438	1
3534	3429	3442	1
3535	3429	3470	1
3536	3430	3431	1
3537	3430	3432	1
3538	3430	3433	1
3539	3434	3435	1
3540	3434	3436	1
3541	3434	3437	1
3542	3438	3439	1
3543	3438	3440	1
3544	3438	3441	1
3545	3442	3443	1
3546	3442	3444	1
3547	3442	3445	1
3548	3446	3447	1
3549	3446	3448	1
3550	3446	3449	1
3551	3450	3451	1
3552	3450	3452	1
3553	3450	3453	1
3554	3454	3455	1
3555	3454	3456	1
3556	3454	3457	1
3557	3454	3471	1
3558	3458	3459	1
3559	3458	3460	1
3560	3458	3461	1
3561	3458	3471	1
3562	3462	3463	1
3563	3462	3464	1
3564	3462	3465	1
3565	3462	3470	1
3566	3466	3467	1
3567	3466	3468	1
3568	3466	3469	1
3569	3466	3470	1
3570	3480	3481	1
3571	3480	3482	1
3572	3480	3483	1
3573	3484	3485	1
3574	3484	3486	1
3575	3484	3487	1
3576	3488	3490	2
3577	3488	3491	1
3578	3489	3492	1
3579	3489	3493	1
3580	3490	3494	1
3581	3490	3495	1
3582	3492	3494	2
3583	3492	3497	1
3584	3494	3496	1
3585	3501	3502	2
3586	3501	3504	1
3587	3501	3509	1
3588	3502	3503	1
3589	3502	3516	1
3590	3505	3506	1
3591	3505	3560	1
3592	3505	3561	1
3593	3506	3507	1
3594	3506	3511	1
3595	3507	3508	2
3596	3507	3512	1
3597	3508	3509	1
3598	3508	3513	1
3599	3509	3510	2
3600	3510	3511	1
3601	3510	3514	1
3602	3511	3515	1
3603	3516	3517	2
3604	3516	3518	1
3605	3517	3519	1
3606	3517	3524	1
3607	3518	3520	1
3608	3518	3521	1
3609	3518	3559	1
3610	3520	3522	1
3611	3520	3618	1
3612	3520	3622	1
3613	3522	3523	1
3614	3522	3524	1
3615	3522	3558	1
3616	3524	3525	2
3617	3525	3526	1
3618	3525	3527	1
3619	3527	3528	2
3620	3527	3529	1
3621	3528	3530	1
3622	3528	3557	1
3623	3530	3531	2
3624	3530	3532	1
3625	3531	3533	1
3626	3531	3534	1
3627	3532	3535	1
3628	3532	3536	1
3629	3532	3537	1
3630	3533	3535	1
3631	3533	3538	2
3632	3534	3539	3
3633	3536	3540	1
3634	3536	3541	1
3635	3536	3542	1
3636	3537	3543	1
3637	3537	3544	2
3638	3538	3545	1
3639	3538	3546	1
3640	3543	3547	1
3641	3543	3548	2
3642	3544	3549	1
3643	3544	3550	1
3644	3545	3551	3
3645	3546	3552	3
3646	3548	3553	1
3647	3548	3554	1
3648	3549	3554	2
3649	3549	3555	1
3650	3554	3556	1
3651	3560	3563	1
3652	3560	3615	1
3653	3560	3616	1
3654	3561	3562	1
3655	3561	3611	1
3656	3561	3614	1
3657	3562	3565	1
3658	3562	3612	1
3659	3562	3613	1
3660	3563	3564	1
3661	3563	3610	1
3662	3563	3617	1
3663	3564	3608	1
3664	3565	3609	1
3665	3566	3572	1
3666	3566	3584	1
3667	3566	3588	1
3668	3566	3609	1
3669	3567	3568	1
3670	3567	3576	1
3671	3567	3580	1
3672	3567	3608	1
3673	3568	3569	1
3674	3568	3570	1
3675	3568	3571	1
3676	3572	3573	1
3677	3572	3574	1
3678	3572	3575	1
3679	3576	3577	1
3680	3576	3578	1
3681	3576	3579	1
3682	3580	3581	1
3683	3580	3582	1
3684	3580	3583	1
3685	3584	3585	1
3686	3584	3586	1
3687	3584	3587	1
3688	3588	3589	1
3689	3588	3590	1
3690	3588	3591	1
3691	3592	3593	1
3692	3592	3594	1
3693	3592	3595	1
3694	3592	3609	1
3695	3596	3597	1
3696	3596	3598	1
3697	3596	3599	1
3698	3596	3609	1
3699	3600	3601	1
3700	3600	3602	1
3701	3600	3603	1
3702	3600	3608	1
3703	3604	3605	1
3704	3604	3606	1
3705	3604	3607	1
3706	3604	3608	1
3707	3618	3619	1
3708	3618	3620	1
3709	3618	3621	1
3710	3622	3623	1
3711	3622	3624	1
3712	3622	3625	1
3713	3626	3627	2
3714	3626	3629	1
3715	3626	3634	1
3716	3627	3628	1
3717	3627	3641	1
3718	3630	3631	1
3719	3630	3685	1
3720	3630	3686	1
3721	3631	3632	1
3722	3631	3636	1
3723	3632	3633	2
3724	3632	3637	1
3725	3633	3634	1
3726	3633	3638	1
3727	3634	3635	2
3728	3635	3636	1
3729	3635	3639	1
3730	3636	3640	1
3731	3641	3642	2
3732	3641	3643	1
3733	3642	3644	1
3734	3642	3649	1
3735	3643	3645	1
3736	3643	3646	1
3737	3643	3684	1
3738	3645	3647	1
3739	3645	3743	1
3740	3645	3747	1
3741	3647	3648	1
3742	3647	3649	1
3743	3647	3683	1
3744	3649	3650	2
3745	3650	3651	1
3746	3650	3652	1
3747	3652	3653	2
3748	3652	3654	1
3749	3653	3655	1
3750	3653	3682	1
3751	3655	3656	2
3752	3655	3657	1
3753	3656	3658	1
3754	3656	3659	1
3755	3657	3660	1
3756	3657	3661	1
3757	3657	3662	1
3758	3658	3660	1
3759	3658	3663	2
3760	3659	3664	3
3761	3661	3665	1
3762	3661	3666	1
3763	3661	3667	1
3764	3662	3668	1
3765	3662	3669	2
3766	3663	3670	1
3767	3663	3671	1
3768	3668	3672	1
3769	3668	3673	2
3770	3669	3674	1
3771	3669	3675	1
3772	3670	3676	3
3773	3671	3677	3
3774	3673	3678	1
3775	3673	3679	1
3776	3674	3679	2
3777	3674	3680	1
3778	3679	3681	1
3779	3685	3688	1
3780	3685	3740	1
3781	3685	3741	1
3782	3686	3687	1
3783	3686	3736	1
3784	3686	3739	1
3785	3687	3690	1
3786	3687	3737	1
3787	3687	3738	1
3788	3688	3689	1
3789	3688	3735	1
3790	3688	3742	1
3791	3689	3733	1
3792	3690	3734	1
3793	3691	3697	1
3794	3691	3709	1
3795	3691	3713	1
3796	3691	3734	1
3797	3692	3693	1
3798	3692	3701	1
3799	3692	3705	1
3800	3692	3733	1
3801	3693	3694	1
3802	3693	3695	1
3803	3693	3696	1
3804	3697	3698	1
3805	3697	3699	1
3806	3697	3700	1
3807	3701	3702	1
3808	3701	3703	1
3809	3701	3704	1
3810	3705	3706	1
3811	3705	3707	1
3812	3705	3708	1
3813	3709	3710	1
3814	3709	3711	1
3815	3709	3712	1
3816	3713	3714	1
3817	3713	3715	1
3818	3713	3716	1
3819	3717	3718	1
3820	3717	3719	1
3821	3717	3720	1
3822	3717	3734	1
3823	3721	3722	1
3824	3721	3723	1
3825	3721	3724	1
3826	3721	3734	1
3827	3725	3726	1
3828	3725	3727	1
3829	3725	3728	1
3830	3725	3733	1
3831	3729	3730	1
3832	3729	3731	1
3833	3729	3732	1
3834	3729	3733	1
3835	3743	3744	1
3836	3743	3745	1
3837	3743	3746	1
3838	3747	3748	1
3839	3747	3749	1
3840	3747	3750	1
3841	3751	3752	2
3842	3751	3754	1
3843	3751	3759	1
3844	3752	3753	1
3845	3752	3766	1
3846	3755	3756	1
3847	3755	3810	1
3848	3755	3811	1
3849	3756	3757	1
3850	3756	3761	1
3851	3757	3758	2
3852	3757	3762	1
3853	3758	3759	1
3854	3758	3763	1
3855	3759	3760	2
3856	3760	3761	1
3857	3760	3764	1
3858	3761	3765	1
3859	3766	3767	2
3860	3766	3768	1
3861	3767	3769	1
3862	3767	3774	1
3863	3768	3770	1
3864	3768	3771	1
3865	3768	3809	1
3866	3770	3772	1
3867	3770	3868	1
3868	3770	3872	1
3869	3772	3773	1
3870	3772	3774	1
3871	3772	3808	1
3872	3774	3775	2
3873	3775	3776	1
3874	3775	3777	1
3875	3777	3778	2
3876	3777	3779	1
3877	3778	3780	1
3878	3778	3807	1
3879	3780	3781	2
3880	3780	3782	1
3881	3781	3783	1
3882	3781	3784	1
3883	3782	3785	1
3884	3782	3786	1
3885	3782	3787	1
3886	3783	3785	1
3887	3783	3788	2
3888	3784	3789	3
3889	3786	3790	1
3890	3786	3791	1
3891	3786	3792	1
3892	3787	3793	1
3893	3787	3794	2
3894	3788	3795	1
3895	3788	3796	1
3896	3793	3797	1
3897	3793	3798	2
3898	3794	3799	1
3899	3794	3800	1
3900	3795	3801	3
3901	3796	3802	3
3902	3798	3803	1
3903	3798	3804	1
3904	3799	3804	2
3905	3799	3805	1
3906	3804	3806	1
3907	3810	3813	1
3908	3810	3865	1
3909	3810	3866	1
3910	3811	3812	1
3911	3811	3861	1
3912	3811	3864	1
3913	3812	3815	1
3914	3812	3862	1
3915	3812	3863	1
3916	3813	3814	1
3917	3813	3860	1
3918	3813	3867	1
3919	3814	3858	1
3920	3815	3859	1
3921	3816	3822	1
3922	3816	3834	1
3923	3816	3838	1
3924	3816	3859	1
3925	3817	3818	1
3926	3817	3826	1
3927	3817	3830	1
3928	3817	3858	1
3929	3818	3819	1
3930	3818	3820	1
3931	3818	3821	1
3932	3822	3823	1
3933	3822	3824	1
3934	3822	3825	1
3935	3826	3827	1
3936	3826	3828	1
3937	3826	3829	1
3938	3830	3831	1
3939	3830	3832	1
3940	3830	3833	1
3941	3834	3835	1
3942	3834	3836	1
3943	3834	3837	1
3944	3838	3839	1
3945	3838	3840	1
3946	3838	3841	1
3947	3842	3843	1
3948	3842	3844	1
3949	3842	3845	1
3950	3842	3859	1
3951	3846	3847	1
3952	3846	3848	1
3953	3846	3849	1
3954	3846	3859	1
3955	3850	3851	1
3956	3850	3852	1
3957	3850	3853	1
3958	3850	3858	1
3959	3854	3855	1
3960	3854	3856	1
3961	3854	3857	1
3962	3854	3858	1
3963	3868	3869	1
3964	3868	3870	1
3965	3868	3871	1
3966	3872	3873	1
3967	3872	3874	1
3968	3872	3875	1
3969	3876	3877	2
3970	3876	3879	1
3971	3876	3884	1
3972	3877	3878	1
3973	3877	3891	1
3974	3880	3881	1
3975	3880	3922	1
3976	3880	3923	1
3977	3881	3882	1
3978	3881	3886	1
3979	3882	3883	2
3980	3882	3887	1
3981	3883	3884	1
3982	3883	3888	1
3983	3884	3885	2
3984	3885	3886	1
3985	3885	3889	1
3986	3886	3890	1
3987	3891	3892	2
3988	3891	3893	1
3989	3892	3894	1
3990	3892	3899	1
3991	3893	3895	1
3992	3893	3896	1
3993	3893	3921	1
3994	3895	3897	1
3995	3895	3980	1
3996	3895	3984	1
3997	3897	3898	1
3998	3897	3899	1
3999	3897	3920	1
4000	3899	3900	2
4001	3900	3901	1
4002	3900	3902	1
4003	3902	3903	2
4004	3902	3904	1
4005	3903	3905	1
4006	3903	3919	1
4007	3905	3906	2
4008	3905	3907	1
4009	3906	3908	1
4010	3906	3909	1
4011	3907	3910	1
4012	3907	3911	1
4013	3907	3912	1
4014	3908	3910	1
4015	3908	3913	2
4016	3909	3914	3
4017	3911	3988	1
4018	3911	3989	2
4019	3912	3998	1
4020	3912	3999	1
4021	3912	4000	1
4022	3913	3915	1
4023	3913	3916	1
4024	3915	3917	3
4025	3916	3918	3
4026	3922	3925	1
4027	3922	3977	1
4028	3922	3978	1
4029	3923	3924	1
4030	3923	3973	1
4031	3923	3976	1
4032	3924	3927	1
4033	3924	3974	1
4034	3924	3975	1
4035	3925	3926	1
4036	3925	3972	1
4037	3925	3979	1
4038	3926	3970	1
4039	3927	3971	1
4040	3928	3934	1
4041	3928	3946	1
4042	3928	3950	1
4043	3928	3971	1
4044	3929	3930	1
4045	3929	3938	1
4046	3929	3942	1
4047	3929	3970	1
4048	3930	3931	1
4049	3930	3932	1
4050	3930	3933	1
4051	3934	3935	1
4052	3934	3936	1
4053	3934	3937	1
4054	3938	3939	1
4055	3938	3940	1
4056	3938	3941	1
4057	3942	3943	1
4058	3942	3944	1
4059	3942	3945	1
4060	3946	3947	1
4061	3946	3948	1
4062	3946	3949	1
4063	3950	3951	1
4064	3950	3952	1
4065	3950	3953	1
4066	3954	3955	1
4067	3954	3956	1
4068	3954	3957	1
4069	3954	3971	1
4070	3958	3959	1
4071	3958	3960	1
4072	3958	3961	1
4073	3958	3971	1
4074	3962	3963	1
4075	3962	3964	1
4076	3962	3965	1
4077	3962	3970	1
4078	3966	3967	1
4079	3966	3968	1
4080	3966	3969	1
4081	3966	3970	1
4082	3980	3981	1
4083	3980	3982	1
4084	3980	3983	1
4085	3984	3985	1
4086	3984	3986	1
4087	3984	3987	1
4088	3988	3990	2
4089	3988	3991	1
4090	3989	3992	1
4091	3989	3993	1
4092	3990	3994	1
4093	3990	3995	1
4094	3992	3994	2
4095	3992	3997	1
4096	3994	3996	1
4097	4001	4002	2
4098	4001	4004	1
4099	4001	4009	1
4100	4002	4003	1
4101	4002	4016	1
4102	4005	4006	1
4103	4005	4047	1
4104	4005	4048	1
4105	4006	4007	1
4106	4006	4011	1
4107	4007	4008	2
4108	4007	4012	1
4109	4008	4009	1
4110	4008	4013	1
4111	4009	4010	2
4112	4010	4011	1
4113	4010	4014	1
4114	4011	4015	1
4115	4016	4017	2
4116	4016	4018	1
4117	4017	4019	1
4118	4017	4024	1
4119	4018	4020	1
4120	4018	4021	1
4121	4018	4046	1
4122	4020	4022	1
4123	4020	4105	1
4124	4020	4109	1
4125	4022	4023	1
4126	4022	4024	1
4127	4022	4045	1
4128	4024	4025	2
4129	4025	4026	1
4130	4025	4027	1
4131	4027	4028	2
4132	4027	4029	1
4133	4028	4030	1
4134	4028	4044	1
4135	4030	4031	2
4136	4030	4032	1
4137	4031	4033	1
4138	4031	4034	1
4139	4032	4035	1
4140	4032	4036	1
4141	4032	4037	1
4142	4033	4035	1
4143	4033	4038	2
4144	4034	4039	3
4145	4036	4113	1
4146	4036	4114	2
4147	4037	4123	1
4148	4037	4124	1
4149	4037	4125	1
4150	4038	4040	1
4151	4038	4041	1
4152	4040	4042	3
4153	4041	4043	3
4154	4047	4050	1
4155	4047	4102	1
4156	4047	4103	1
4157	4048	4049	1
4158	4048	4098	1
4159	4048	4101	1
4160	4049	4052	1
4161	4049	4099	1
4162	4049	4100	1
4163	4050	4051	1
4164	4050	4097	1
4165	4050	4104	1
4166	4051	4095	1
4167	4052	4096	1
4168	4053	4059	1
4169	4053	4071	1
4170	4053	4075	1
4171	4053	4096	1
4172	4054	4055	1
4173	4054	4063	1
4174	4054	4067	1
4175	4054	4095	1
4176	4055	4056	1
4177	4055	4057	1
4178	4055	4058	1
4179	4059	4060	1
4180	4059	4061	1
4181	4059	4062	1
4182	4063	4064	1
4183	4063	4065	1
4184	4063	4066	1
4185	4067	4068	1
4186	4067	4069	1
4187	4067	4070	1
4188	4071	4072	1
4189	4071	4073	1
4190	4071	4074	1
4191	4075	4076	1
4192	4075	4077	1
4193	4075	4078	1
4194	4079	4080	1
4195	4079	4081	1
4196	4079	4082	1
4197	4079	4096	1
4198	4083	4084	1
4199	4083	4085	1
4200	4083	4086	1
4201	4083	4096	1
4202	4087	4088	1
4203	4087	4089	1
4204	4087	4090	1
4205	4087	4095	1
4206	4091	4092	1
4207	4091	4093	1
4208	4091	4094	1
4209	4091	4095	1
4210	4105	4106	1
4211	4105	4107	1
4212	4105	4108	1
4213	4109	4110	1
4214	4109	4111	1
4215	4109	4112	1
4216	4113	4115	2
4217	4113	4116	1
4218	4114	4117	1
4219	4114	4118	1
4220	4115	4119	1
4221	4115	4120	1
4222	4117	4119	2
4223	4117	4122	1
4224	4119	4121	1
4225	4126	4127	2
4226	4126	4129	1
4227	4126	4134	1
4228	4127	4128	1
4229	4127	4141	1
4230	4130	4131	1
4231	4130	4185	1
4232	4130	4186	1
4233	4131	4132	1
4234	4131	4136	1
4235	4132	4133	2
4236	4132	4137	1
4237	4133	4134	1
4238	4133	4138	1
4239	4134	4135	2
4240	4135	4136	1
4241	4135	4139	1
4242	4136	4140	1
4243	4141	4142	2
4244	4141	4143	1
4245	4142	4144	1
4246	4142	4149	1
4247	4143	4145	1
4248	4143	4146	1
4249	4143	4184	1
4250	4145	4147	1
4251	4145	4243	1
4252	4145	4247	1
4253	4147	4148	1
4254	4147	4149	1
4255	4147	4183	1
4256	4149	4150	2
4257	4150	4151	1
4258	4150	4152	1
4259	4152	4153	2
4260	4152	4154	1
4261	4153	4155	1
4262	4153	4182	1
4263	4155	4156	2
4264	4155	4157	1
4265	4156	4158	1
4266	4156	4159	1
4267	4157	4160	1
4268	4157	4161	1
4269	4157	4162	1
4270	4158	4160	1
4271	4158	4163	2
4272	4159	4164	3
4273	4161	4165	1
4274	4161	4166	1
4275	4161	4167	1
4276	4162	4168	1
4277	4162	4169	2
4278	4163	4170	1
4279	4163	4171	1
4280	4168	4172	1
4281	4168	4173	2
4282	4169	4174	1
4283	4169	4175	1
4284	4170	4176	3
4285	4171	4177	3
4286	4173	4178	1
4287	4173	4179	1
4288	4174	4179	2
4289	4174	4180	1
4290	4179	4181	1
4291	4185	4188	1
4292	4185	4240	1
4293	4185	4241	1
4294	4186	4187	1
4295	4186	4236	1
4296	4186	4239	1
4297	4187	4190	1
4298	4187	4237	1
4299	4187	4238	1
4300	4188	4189	1
4301	4188	4235	1
4302	4188	4242	1
4303	4189	4233	1
4304	4190	4234	1
4305	4191	4197	1
4306	4191	4209	1
4307	4191	4213	1
4308	4191	4234	1
4309	4192	4193	1
4310	4192	4201	1
4311	4192	4205	1
4312	4192	4233	1
4313	4193	4194	1
4314	4193	4195	1
4315	4193	4196	1
4316	4197	4198	1
4317	4197	4199	1
4318	4197	4200	1
4319	4201	4202	1
4320	4201	4203	1
4321	4201	4204	1
4322	4205	4206	1
4323	4205	4207	1
4324	4205	4208	1
4325	4209	4210	1
4326	4209	4211	1
4327	4209	4212	1
4328	4213	4214	1
4329	4213	4215	1
4330	4213	4216	1
4331	4217	4218	1
4332	4217	4219	1
4333	4217	4220	1
4334	4217	4234	1
4335	4221	4222	1
4336	4221	4223	1
4337	4221	4224	1
4338	4221	4234	1
4339	4225	4226	1
4340	4225	4227	1
4341	4225	4228	1
4342	4225	4233	1
4343	4229	4230	1
4344	4229	4231	1
4345	4229	4232	1
4346	4229	4233	1
4347	4243	4244	1
4348	4243	4245	1
4349	4243	4246	1
4350	4247	4248	1
4351	4247	4249	1
4352	4247	4250	1
4353	4251	4252	2
4354	4251	4254	1
4355	4251	4259	1
4356	4252	4253	1
4357	4252	4266	1
4358	4255	4256	1
4359	4255	4297	1
4360	4255	4298	1
4361	4256	4257	1
4362	4256	4261	1
4363	4257	4258	2
4364	4257	4262	1
4365	4258	4259	1
4366	4258	4263	1
4367	4259	4260	2
4368	4260	4261	1
4369	4260	4264	1
4370	4261	4265	1
4371	4266	4267	2
4372	4266	4268	1
4373	4267	4269	1
4374	4267	4274	1
4375	4268	4270	1
4376	4268	4271	1
4377	4268	4296	1
4378	4270	4272	1
4379	4270	4355	1
4380	4270	4359	1
4381	4272	4273	1
4382	4272	4274	1
4383	4272	4295	1
4384	4274	4275	2
4385	4275	4276	1
4386	4275	4277	1
4387	4277	4278	2
4388	4277	4279	1
4389	4278	4280	1
4390	4278	4294	1
4391	4280	4281	2
4392	4280	4282	1
4393	4281	4283	1
4394	4281	4284	1
4395	4282	4285	1
4396	4282	4286	1
4397	4282	4287	1
4398	4283	4285	1
4399	4283	4288	2
4400	4284	4289	3
4401	4286	4363	1
4402	4286	4364	2
4403	4287	4373	1
4404	4287	4374	1
4405	4287	4375	1
4406	4288	4290	1
4407	4288	4291	1
4408	4290	4292	3
4409	4291	4293	3
4410	4297	4300	1
4411	4297	4352	1
4412	4297	4353	1
4413	4298	4299	1
4414	4298	4348	1
4415	4298	4351	1
4416	4299	4302	1
4417	4299	4349	1
4418	4299	4350	1
4419	4300	4301	1
4420	4300	4347	1
4421	4300	4354	1
4422	4301	4345	1
4423	4302	4346	1
4424	4303	4309	1
4425	4303	4321	1
4426	4303	4325	1
4427	4303	4346	1
4428	4304	4305	1
4429	4304	4313	1
4430	4304	4317	1
4431	4304	4345	1
4432	4305	4306	1
4433	4305	4307	1
4434	4305	4308	1
4435	4309	4310	1
4436	4309	4311	1
4437	4309	4312	1
4438	4313	4314	1
4439	4313	4315	1
4440	4313	4316	1
4441	4317	4318	1
4442	4317	4319	1
4443	4317	4320	1
4444	4321	4322	1
4445	4321	4323	1
4446	4321	4324	1
4447	4325	4326	1
4448	4325	4327	1
4449	4325	4328	1
4450	4329	4330	1
4451	4329	4331	1
4452	4329	4332	1
4453	4329	4346	1
4454	4333	4334	1
4455	4333	4335	1
4456	4333	4336	1
4457	4333	4346	1
4458	4337	4338	1
4459	4337	4339	1
4460	4337	4340	1
4461	4337	4345	1
4462	4341	4342	1
4463	4341	4343	1
4464	4341	4344	1
4465	4341	4345	1
4466	4355	4356	1
4467	4355	4357	1
4468	4355	4358	1
4469	4359	4360	1
4470	4359	4361	1
4471	4359	4362	1
4472	4363	4365	2
4473	4363	4366	1
4474	4364	4367	1
4475	4364	4368	1
4476	4365	4369	1
4477	4365	4370	1
4478	4367	4369	2
4479	4367	4372	1
4480	4369	4371	1
4481	4376	4377	2
4482	4376	4379	1
4483	4376	4384	1
4484	4377	4378	1
4485	4377	4391	1
4486	4380	4381	1
4487	4380	4422	1
4488	4380	4423	1
4489	4381	4382	1
4490	4381	4386	1
4491	4382	4383	2
4492	4382	4387	1
4493	4383	4384	1
4494	4383	4388	1
4495	4384	4385	2
4496	4385	4386	1
4497	4385	4389	1
4498	4386	4390	1
4499	4391	4392	2
4500	4391	4393	1
4501	4392	4394	1
4502	4392	4399	1
4503	4393	4395	1
4504	4393	4396	1
4505	4393	4421	1
4506	4395	4397	1
4507	4395	4480	1
4508	4395	4484	1
4509	4397	4398	1
4510	4397	4399	1
4511	4397	4420	1
4512	4399	4400	2
4513	4400	4401	1
4514	4400	4402	1
4515	4402	4403	2
4516	4402	4404	1
4517	4403	4405	1
4518	4403	4419	1
4519	4405	4406	2
4520	4405	4407	1
4521	4406	4408	1
4522	4406	4409	1
4523	4407	4410	1
4524	4407	4411	1
4525	4407	4412	1
4526	4408	4410	1
4527	4408	4413	2
4528	4409	4414	3
4529	4411	4488	1
4530	4411	4489	2
4531	4412	4498	1
4532	4412	4499	1
4533	4412	4500	1
4534	4413	4415	1
4535	4413	4416	1
4536	4415	4417	3
4537	4416	4418	3
4538	4422	4425	1
4539	4422	4477	1
4540	4422	4478	1
4541	4423	4424	1
4542	4423	4473	1
4543	4423	4476	1
4544	4424	4427	1
4545	4424	4474	1
4546	4424	4475	1
4547	4425	4426	1
4548	4425	4472	1
4549	4425	4479	1
4550	4426	4470	1
4551	4427	4471	1
4552	4428	4434	1
4553	4428	4446	1
4554	4428	4450	1
4555	4428	4471	1
4556	4429	4430	1
4557	4429	4438	1
4558	4429	4442	1
4559	4429	4470	1
4560	4430	4431	1
4561	4430	4432	1
4562	4430	4433	1
4563	4434	4435	1
4564	4434	4436	1
4565	4434	4437	1
4566	4438	4439	1
4567	4438	4440	1
4568	4438	4441	1
4569	4442	4443	1
4570	4442	4444	1
4571	4442	4445	1
4572	4446	4447	1
4573	4446	4448	1
4574	4446	4449	1
4575	4450	4451	1
4576	4450	4452	1
4577	4450	4453	1
4578	4454	4455	1
4579	4454	4456	1
4580	4454	4457	1
4581	4454	4471	1
4582	4458	4459	1
4583	4458	4460	1
4584	4458	4461	1
4585	4458	4471	1
4586	4462	4463	1
4587	4462	4464	1
4588	4462	4465	1
4589	4462	4470	1
4590	4466	4467	1
4591	4466	4468	1
4592	4466	4469	1
4593	4466	4470	1
4594	4480	4481	1
4595	4480	4482	1
4596	4480	4483	1
4597	4484	4485	1
4598	4484	4486	1
4599	4484	4487	1
4600	4488	4490	2
4601	4488	4491	1
4602	4489	4492	1
4603	4489	4493	1
4604	4490	4494	1
4605	4490	4495	1
4606	4492	4494	2
4607	4492	4497	1
4608	4494	4496	1
4609	4501	4502	2
4610	4501	4504	1
4611	4501	4509	1
4612	4502	4503	1
4613	4502	4516	1
4614	4505	4506	1
4615	4505	4547	1
4616	4505	4548	1
4617	4506	4507	1
4618	4506	4511	1
4619	4507	4508	2
4620	4507	4512	1
4621	4508	4509	1
4622	4508	4513	1
4623	4509	4510	2
4624	4510	4511	1
4625	4510	4514	1
4626	4511	4515	1
4627	4516	4517	2
4628	4516	4518	1
4629	4517	4519	1
4630	4517	4524	1
4631	4518	4520	1
4632	4518	4521	1
4633	4518	4546	1
4634	4520	4522	1
4635	4520	4605	1
4636	4520	4609	1
4637	4522	4523	1
4638	4522	4524	1
4639	4522	4545	1
4640	4524	4525	2
4641	4525	4526	1
4642	4525	4527	1
4643	4527	4528	2
4644	4527	4529	1
4645	4528	4530	1
4646	4528	4544	1
4647	4530	4531	2
4648	4530	4532	1
4649	4531	4533	1
4650	4531	4534	1
4651	4532	4535	1
4652	4532	4536	1
4653	4532	4537	1
4654	4533	4535	1
4655	4533	4538	2
4656	4534	4539	3
4657	4536	4613	1
4658	4536	4614	2
4659	4537	4623	1
4660	4537	4624	1
4661	4537	4625	1
4662	4538	4540	1
4663	4538	4541	1
4664	4540	4542	3
4665	4541	4543	3
4666	4547	4550	1
4667	4547	4602	1
4668	4547	4603	1
4669	4548	4549	1
4670	4548	4598	1
4671	4548	4601	1
4672	4549	4552	1
4673	4549	4599	1
4674	4549	4600	1
4675	4550	4551	1
4676	4550	4597	1
4677	4550	4604	1
4678	4551	4595	1
4679	4552	4596	1
4680	4553	4559	1
4681	4553	4571	1
4682	4553	4575	1
4683	4553	4596	1
4684	4554	4555	1
4685	4554	4563	1
4686	4554	4567	1
4687	4554	4595	1
4688	4555	4556	1
4689	4555	4557	1
4690	4555	4558	1
4691	4559	4560	1
4692	4559	4561	1
4693	4559	4562	1
4694	4563	4564	1
4695	4563	4565	1
4696	4563	4566	1
4697	4567	4568	1
4698	4567	4569	1
4699	4567	4570	1
4700	4571	4572	1
4701	4571	4573	1
4702	4571	4574	1
4703	4575	4576	1
4704	4575	4577	1
4705	4575	4578	1
4706	4579	4580	1
4707	4579	4581	1
4708	4579	4582	1
4709	4579	4596	1
4710	4583	4584	1
4711	4583	4585	1
4712	4583	4586	1
4713	4583	4596	1
4714	4587	4588	1
4715	4587	4589	1
4716	4587	4590	1
4717	4587	4595	1
4718	4591	4592	1
4719	4591	4593	1
4720	4591	4594	1
4721	4591	4595	1
4722	4605	4606	1
4723	4605	4607	1
4724	4605	4608	1
4725	4609	4610	1
4726	4609	4611	1
4727	4609	4612	1
4728	4613	4615	2
4729	4613	4616	1
4730	4614	4617	1
4731	4614	4618	1
4732	4615	4619	1
4733	4615	4620	1
4734	4617	4619	2
4735	4617	4622	1
4736	4619	4621	1
4737	4626	4627	2
4738	4626	4629	1
4739	4626	4634	1
4740	4627	4628	1
4741	4627	4641	1
4742	4630	4631	1
4743	4630	4672	1
4744	4630	4673	1
4745	4631	4632	1
4746	4631	4636	1
4747	4632	4633	2
4748	4632	4637	1
4749	4633	4634	1
4750	4633	4638	1
4751	4634	4635	2
4752	4635	4636	1
4753	4635	4639	1
4754	4636	4640	1
4755	4641	4642	2
4756	4641	4643	1
4757	4642	4644	1
4758	4642	4649	1
4759	4643	4645	1
4760	4643	4646	1
4761	4643	4671	1
4762	4645	4647	1
4763	4645	4730	1
4764	4645	4734	1
4765	4647	4648	1
4766	4647	4649	1
4767	4647	4670	1
4768	4649	4650	2
4769	4650	4651	1
4770	4650	4652	1
4771	4652	4653	2
4772	4652	4654	1
4773	4653	4655	1
4774	4653	4669	1
4775	4655	4656	2
4776	4655	4657	1
4777	4656	4658	1
4778	4656	4659	1
4779	4657	4660	1
4780	4657	4661	1
4781	4657	4662	1
4782	4658	4660	1
4783	4658	4663	2
4784	4659	4664	3
4785	4661	4738	1
4786	4661	4739	2
4787	4662	4748	1
4788	4662	4749	1
4789	4662	4750	1
4790	4663	4665	1
4791	4663	4666	1
4792	4665	4667	3
4793	4666	4668	3
4794	4672	4675	1
4795	4672	4727	1
4796	4672	4728	1
4797	4673	4674	1
4798	4673	4723	1
4799	4673	4726	1
4800	4674	4677	1
4801	4674	4724	1
4802	4674	4725	1
4803	4675	4676	1
4804	4675	4722	1
4805	4675	4729	1
4806	4676	4720	1
4807	4677	4721	1
4808	4678	4684	1
4809	4678	4696	1
4810	4678	4700	1
4811	4678	4721	1
4812	4679	4680	1
4813	4679	4688	1
4814	4679	4692	1
4815	4679	4720	1
4816	4680	4681	1
4817	4680	4682	1
4818	4680	4683	1
4819	4684	4685	1
4820	4684	4686	1
4821	4684	4687	1
4822	4688	4689	1
4823	4688	4690	1
4824	4688	4691	1
4825	4692	4693	1
4826	4692	4694	1
4827	4692	4695	1
4828	4696	4697	1
4829	4696	4698	1
4830	4696	4699	1
4831	4700	4701	1
4832	4700	4702	1
4833	4700	4703	1
4834	4704	4705	1
4835	4704	4706	1
4836	4704	4707	1
4837	4704	4721	1
4838	4708	4709	1
4839	4708	4710	1
4840	4708	4711	1
4841	4708	4721	1
4842	4712	4713	1
4843	4712	4714	1
4844	4712	4715	1
4845	4712	4720	1
4846	4716	4717	1
4847	4716	4718	1
4848	4716	4719	1
4849	4716	4720	1
4850	4730	4731	1
4851	4730	4732	1
4852	4730	4733	1
4853	4734	4735	1
4854	4734	4736	1
4855	4734	4737	1
4856	4738	4740	2
4857	4738	4741	1
4858	4739	4742	1
4859	4739	4743	1
4860	4740	4744	1
4861	4740	4745	1
4862	4742	4744	2
4863	4742	4747	1
4864	4744	4746	1
4865	4751	4752	2
4866	4751	4754	1
4867	4751	4759	1
4868	4752	4753	1
4869	4752	4766	1
4870	4755	4756	1
4871	4755	4797	1
4872	4755	4798	1
4873	4756	4757	1
4874	4756	4761	1
4875	4757	4758	2
4876	4757	4762	1
4877	4758	4759	1
4878	4758	4763	1
4879	4759	4760	2
4880	4760	4761	1
4881	4760	4764	1
4882	4761	4765	1
4883	4766	4767	2
4884	4766	4768	1
4885	4767	4769	1
4886	4767	4774	1
4887	4768	4770	1
4888	4768	4771	1
4889	4768	4796	1
4890	4770	4772	1
4891	4770	4855	1
4892	4770	4859	1
4893	4772	4773	1
4894	4772	4774	1
4895	4772	4795	1
4896	4774	4775	2
4897	4775	4776	1
4898	4775	4777	1
4899	4777	4778	2
4900	4777	4779	1
4901	4778	4780	1
4902	4778	4794	1
4903	4780	4781	2
4904	4780	4782	1
4905	4781	4783	1
4906	4781	4784	1
4907	4782	4785	1
4908	4782	4786	1
4909	4782	4787	1
4910	4783	4785	1
4911	4783	4788	2
4912	4784	4789	3
4913	4786	4863	1
4914	4786	4864	2
4915	4787	4873	1
4916	4787	4874	1
4917	4787	4875	1
4918	4788	4790	1
4919	4788	4791	1
4920	4790	4792	3
4921	4791	4793	3
4922	4797	4800	1
4923	4797	4852	1
4924	4797	4853	1
4925	4798	4799	1
4926	4798	4848	1
4927	4798	4851	1
4928	4799	4802	1
4929	4799	4849	1
4930	4799	4850	1
4931	4800	4801	1
4932	4800	4847	1
4933	4800	4854	1
4934	4801	4845	1
4935	4802	4846	1
4936	4803	4809	1
4937	4803	4821	1
4938	4803	4825	1
4939	4803	4846	1
4940	4804	4805	1
4941	4804	4813	1
4942	4804	4817	1
4943	4804	4845	1
4944	4805	4806	1
4945	4805	4807	1
4946	4805	4808	1
4947	4809	4810	1
4948	4809	4811	1
4949	4809	4812	1
4950	4813	4814	1
4951	4813	4815	1
4952	4813	4816	1
4953	4817	4818	1
4954	4817	4819	1
4955	4817	4820	1
4956	4821	4822	1
4957	4821	4823	1
4958	4821	4824	1
4959	4825	4826	1
4960	4825	4827	1
4961	4825	4828	1
4962	4829	4830	1
4963	4829	4831	1
4964	4829	4832	1
4965	4829	4846	1
4966	4833	4834	1
4967	4833	4835	1
4968	4833	4836	1
4969	4833	4846	1
4970	4837	4838	1
4971	4837	4839	1
4972	4837	4840	1
4973	4837	4845	1
4974	4841	4842	1
4975	4841	4843	1
4976	4841	4844	1
4977	4841	4845	1
4978	4855	4856	1
4979	4855	4857	1
4980	4855	4858	1
4981	4859	4860	1
4982	4859	4861	1
4983	4859	4862	1
4984	4863	4865	2
4985	4863	4866	1
4986	4864	4867	1
4987	4864	4868	1
4988	4865	4869	1
4989	4865	4870	1
4990	4867	4869	2
4991	4867	4872	1
4992	4869	4871	1
4993	4876	4877	2
4994	4876	4879	1
4995	4876	4884	1
4996	4877	4878	1
4997	4877	4891	1
4998	4880	4881	1
4999	4880	4922	1
5000	4880	4923	1
5001	4881	4882	1
5002	4881	4886	1
5003	4882	4883	2
5004	4882	4887	1
5005	4883	4884	1
5006	4883	4888	1
5007	4884	4885	2
5008	4885	4886	1
5009	4885	4889	1
5010	4886	4890	1
5011	4891	4892	2
5012	4891	4893	1
5013	4892	4894	1
5014	4892	4899	1
5015	4893	4895	1
5016	4893	4896	1
5017	4893	4921	1
5018	4895	4897	1
5019	4895	4980	1
5020	4895	4984	1
5021	4897	4898	1
5022	4897	4899	1
5023	4897	4920	1
5024	4899	4900	2
5025	4900	4901	1
5026	4900	4902	1
5027	4902	4903	2
5028	4902	4904	1
5029	4903	4905	1
5030	4903	4919	1
5031	4905	4906	2
5032	4905	4907	1
5033	4906	4908	1
5034	4906	4909	1
5035	4907	4910	1
5036	4907	4911	1
5037	4907	4912	1
5038	4908	4910	1
5039	4908	4913	2
5040	4909	4914	3
5041	4911	4988	1
5042	4911	4989	2
5043	4912	4998	1
5044	4912	4999	1
5045	4912	5000	1
5046	4913	4915	1
5047	4913	4916	1
5048	4915	4917	3
5049	4916	4918	3
5050	4922	4925	1
5051	4922	4977	1
5052	4922	4978	1
5053	4923	4924	1
5054	4923	4973	1
5055	4923	4976	1
5056	4924	4927	1
5057	4924	4974	1
5058	4924	4975	1
5059	4925	4926	1
5060	4925	4972	1
5061	4925	4979	1
5062	4926	4970	1
5063	4927	4971	1
5064	4928	4934	1
5065	4928	4946	1
5066	4928	4950	1
5067	4928	4971	1
5068	4929	4930	1
5069	4929	4938	1
5070	4929	4942	1
5071	4929	4970	1
5072	4930	4931	1
5073	4930	4932	1
5074	4930	4933	1
5075	4934	4935	1
5076	4934	4936	1
5077	4934	4937	1
5078	4938	4939	1
5079	4938	4940	1
5080	4938	4941	1
5081	4942	4943	1
5082	4942	4944	1
5083	4942	4945	1
5084	4946	4947	1
5085	4946	4948	1
5086	4946	4949	1
5087	4950	4951	1
5088	4950	4952	1
5089	4950	4953	1
5090	4954	4955	1
5091	4954	4956	1
5092	4954	4957	1
5093	4954	4971	1
5094	4958	4959	1
5095	4958	4960	1
5096	4958	4961	1
5097	4958	4971	1
5098	4962	4963	1
5099	4962	4964	1
5100	4962	4965	1
5101	4962	4970	1
5102	4966	4967	1
5103	4966	4968	1
5104	4966	4969	1
5105	4966	4970	1
5106	4980	4981	1
5107	4980	4982	1
5108	4980	4983	1
5109	4984	4985	1
5110	4984	4986	1
5111	4984	4987	1
5112	4988	4990	2
5113	4988	4991	1
5114	4989	4992	1
5115	4989	4993	1
5116	4990	4994	1
5117	4990	4995	1
5118	4992	4994	2
5119	4992	4997	1
5120	4994	4996	1
5121	5001	5002	2
5122	5001	5004	1
5123	5001	5009	1
5124	5002	5003	1
5125	5002	5016	1
5126	5005	5006	1
5127	5005	5047	1
5128	5005	5048	1
5129	5006	5007	1
5130	5006	5011	1
5131	5007	5008	2
5132	5007	5012	1
5133	5008	5009	1
5134	5008	5013	1
5135	5009	5010	2
5136	5010	5011	1
5137	5010	5014	1
5138	5011	5015	1
5139	5016	5017	2
5140	5016	5018	1
5141	5017	5019	1
5142	5017	5024	1
5143	5018	5020	1
5144	5018	5021	1
5145	5018	5046	1
5146	5020	5022	1
5147	5020	5105	1
5148	5020	5109	1
5149	5022	5023	1
5150	5022	5024	1
5151	5022	5045	1
5152	5024	5025	2
5153	5025	5026	1
5154	5025	5027	1
5155	5027	5028	2
5156	5027	5029	1
5157	5028	5030	1
5158	5028	5044	1
5159	5030	5031	2
5160	5030	5032	1
5161	5031	5033	1
5162	5031	5034	1
5163	5032	5035	1
5164	5032	5036	1
5165	5032	5037	1
5166	5033	5035	1
5167	5033	5038	2
5168	5034	5039	3
5169	5036	5113	1
5170	5036	5114	2
5171	5037	5123	1
5172	5037	5124	1
5173	5037	5125	1
5174	5038	5040	1
5175	5038	5041	1
5176	5040	5042	3
5177	5041	5043	3
5178	5047	5050	1
5179	5047	5102	1
5180	5047	5103	1
5181	5048	5049	1
5182	5048	5098	1
5183	5048	5101	1
5184	5049	5052	1
5185	5049	5099	1
5186	5049	5100	1
5187	5050	5051	1
5188	5050	5097	1
5189	5050	5104	1
5190	5051	5095	1
5191	5052	5096	1
5192	5053	5059	1
5193	5053	5071	1
5194	5053	5075	1
5195	5053	5096	1
5196	5054	5055	1
5197	5054	5063	1
5198	5054	5067	1
5199	5054	5095	1
5200	5055	5056	1
5201	5055	5057	1
5202	5055	5058	1
5203	5059	5060	1
5204	5059	5061	1
5205	5059	5062	1
5206	5063	5064	1
5207	5063	5065	1
5208	5063	5066	1
5209	5067	5068	1
5210	5067	5069	1
5211	5067	5070	1
5212	5071	5072	1
5213	5071	5073	1
5214	5071	5074	1
5215	5075	5076	1
5216	5075	5077	1
5217	5075	5078	1
5218	5079	5080	1
5219	5079	5081	1
5220	5079	5082	1
5221	5079	5096	1
5222	5083	5084	1
5223	5083	5085	1
5224	5083	5086	1
5225	5083	5096	1
5226	5087	5088	1
5227	5087	5089	1
5228	5087	5090	1
5229	5087	5095	1
5230	5091	5092	1
5231	5091	5093	1
5232	5091	5094	1
5233	5091	5095	1
5234	5105	5106	1
5235	5105	5107	1
5236	5105	5108	1
5237	5109	5110	1
5238	5109	5111	1
5239	5109	5112	1
5240	5113	5115	2
5241	5113	5116	1
5242	5114	5117	1
5243	5114	5118	1
5244	5115	5119	1
5245	5115	5120	1
5246	5117	5119	2
5247	5117	5122	1
5248	5119	5121	1
5249	5126	5127	2
5250	5126	5129	1
5251	5126	5134	1
5252	5127	5128	1
5253	5127	5141	1
5254	5130	5131	1
5255	5130	5185	1
5256	5130	5186	1
5257	5131	5132	1
5258	5131	5136	1
5259	5132	5133	2
5260	5132	5137	1
5261	5133	5134	1
5262	5133	5138	1
5263	5134	5135	2
5264	5135	5136	1
5265	5135	5139	1
5266	5136	5140	1
5267	5141	5142	2
5268	5141	5143	1
5269	5142	5144	1
5270	5142	5149	1
5271	5143	5145	1
5272	5143	5146	1
5273	5143	5184	1
5274	5145	5147	1
5275	5145	5243	1
5276	5145	5247	1
5277	5147	5148	1
5278	5147	5149	1
5279	5147	5183	1
5280	5149	5150	2
5281	5150	5151	1
5282	5150	5152	1
5283	5152	5153	2
5284	5152	5154	1
5285	5153	5155	1
5286	5153	5182	1
5287	5155	5156	2
5288	5155	5157	1
5289	5156	5158	1
5290	5156	5159	1
5291	5157	5160	1
5292	5157	5161	1
5293	5157	5162	1
5294	5158	5160	1
5295	5158	5163	2
5296	5159	5164	3
5297	5161	5165	1
5298	5161	5166	1
5299	5161	5167	1
5300	5162	5168	1
5301	5162	5169	2
5302	5163	5170	1
5303	5163	5171	1
5304	5168	5172	1
5305	5168	5173	2
5306	5169	5174	1
5307	5169	5175	1
5308	5170	5176	3
5309	5171	5177	3
5310	5173	5178	1
5311	5173	5179	1
5312	5174	5179	2
5313	5174	5180	1
5314	5179	5181	1
5315	5185	5188	1
5316	5185	5240	1
5317	5185	5241	1
5318	5186	5187	1
5319	5186	5236	1
5320	5186	5239	1
5321	5187	5190	1
5322	5187	5237	1
5323	5187	5238	1
5324	5188	5189	1
5325	5188	5235	1
5326	5188	5242	1
5327	5189	5233	1
5328	5190	5234	1
5329	5191	5197	1
5330	5191	5209	1
5331	5191	5213	1
5332	5191	5234	1
5333	5192	5193	1
5334	5192	5201	1
5335	5192	5205	1
5336	5192	5233	1
5337	5193	5194	1
5338	5193	5195	1
5339	5193	5196	1
5340	5197	5198	1
5341	5197	5199	1
5342	5197	5200	1
5343	5201	5202	1
5344	5201	5203	1
5345	5201	5204	1
5346	5205	5206	1
5347	5205	5207	1
5348	5205	5208	1
5349	5209	5210	1
5350	5209	5211	1
5351	5209	5212	1
5352	5213	5214	1
5353	5213	5215	1
5354	5213	5216	1
5355	5217	5218	1
5356	5217	5219	1
5357	5217	5220	1
5358	5217	5234	1
5359	5221	5222	1
5360	5221	5223	1
5361	5221	5224	1
5362	5221	5234	1
5363	5225	5226	1
5364	5225	5227	1
5365	5225	5228	1
5366	5225	5233	1
5367	5229	5230	1
5368	5229	5231	1
5369	5229	5232	1
5370	5229	5233	1
5371	5243	5244	1
5372	5243	5245	1
5373	5243	5246	1
5374	5247	5248	1
5375	5247	5249	1
5376	5247	5250	1
5377	5251	5252	2
5378	5251	5254	1
5379	5251	5259	1
5380	5252	5253	1
5381	5252	5266	1
5382	5255	5256	1
5383	5255	5297	1
5384	5255	5298	1
5385	5256	5257	1
5386	5256	5261	1
5387	5257	5258	2
5388	5257	5262	1
5389	5258	5259	1
5390	5258	5263	1
5391	5259	5260	2
5392	5260	5261	1
5393	5260	5264	1
5394	5261	5265	1
5395	5266	5267	2
5396	5266	5268	1
5397	5267	5269	1
5398	5267	5274	1
5399	5268	5270	1
5400	5268	5271	1
5401	5268	5296	1
5402	5270	5272	1
5403	5270	5355	1
5404	5270	5359	1
5405	5272	5273	1
5406	5272	5274	1
5407	5272	5295	1
5408	5274	5275	2
5409	5275	5276	1
5410	5275	5277	1
5411	5277	5278	2
5412	5277	5279	1
5413	5278	5280	1
5414	5278	5294	1
5415	5280	5281	2
5416	5280	5282	1
5417	5281	5283	1
5418	5281	5284	1
5419	5282	5285	1
5420	5282	5286	1
5421	5282	5287	1
5422	5283	5285	1
5423	5283	5288	2
5424	5284	5289	3
5425	5286	5363	1
5426	5286	5364	2
5427	5287	5373	1
5428	5287	5374	1
5429	5287	5375	1
5430	5288	5290	1
5431	5288	5291	1
5432	5290	5292	3
5433	5291	5293	3
5434	5297	5300	1
5435	5297	5352	1
5436	5297	5353	1
5437	5298	5299	1
5438	5298	5348	1
5439	5298	5351	1
5440	5299	5302	1
5441	5299	5349	1
5442	5299	5350	1
5443	5300	5301	1
5444	5300	5347	1
5445	5300	5354	1
5446	5301	5345	1
5447	5302	5346	1
5448	5303	5309	1
5449	5303	5321	1
5450	5303	5325	1
5451	5303	5346	1
5452	5304	5305	1
5453	5304	5313	1
5454	5304	5317	1
5455	5304	5345	1
5456	5305	5306	1
5457	5305	5307	1
5458	5305	5308	1
5459	5309	5310	1
5460	5309	5311	1
5461	5309	5312	1
5462	5313	5314	1
5463	5313	5315	1
5464	5313	5316	1
5465	5317	5318	1
5466	5317	5319	1
5467	5317	5320	1
5468	5321	5322	1
5469	5321	5323	1
5470	5321	5324	1
5471	5325	5326	1
5472	5325	5327	1
5473	5325	5328	1
5474	5329	5330	1
5475	5329	5331	1
5476	5329	5332	1
5477	5329	5346	1
5478	5333	5334	1
5479	5333	5335	1
5480	5333	5336	1
5481	5333	5346	1
5482	5337	5338	1
5483	5337	5339	1
5484	5337	5340	1
5485	5337	5345	1
5486	5341	5342	1
5487	5341	5343	1
5488	5341	5344	1
5489	5341	5345	1
5490	5355	5356	1
5491	5355	5357	1
5492	5355	5358	1
5493	5359	5360	1
5494	5359	5361	1
5495	5359	5362	1
5496	5363	5365	2
5497	5363	5366	1
5498	5364	5367	1
5499	5364	5368	1
5500	5365	5369	1
5501	5365	5370	1
5502	5367	5369	2
5503	5367	5372	1
5504	5369	5371	1
5505	5376	5377	2
5506	5376	5379	1
5507	5376	5384	1
5508	5377	5378	1
5509	5377	5391	1
5510	5380	5381	1
5511	5380	5435	1
5512	5380	5436	1
5513	5381	5382	1
5514	5381	5386	1
5515	5382	5383	2
5516	5382	5387	1
5517	5383	5384	1
5518	5383	5388	1
5519	5384	5385	2
5520	5385	5386	1
5521	5385	5389	1
5522	5386	5390	1
5523	5391	5392	2
5524	5391	5393	1
5525	5392	5394	1
5526	5392	5399	1
5527	5393	5395	1
5528	5393	5396	1
5529	5393	5434	1
5530	5395	5397	1
5531	5395	5493	1
5532	5395	5497	1
5533	5397	5398	1
5534	5397	5399	1
5535	5397	5433	1
5536	5399	5400	2
5537	5400	5401	1
5538	5400	5402	1
5539	5402	5403	2
5540	5402	5404	1
5541	5403	5405	1
5542	5403	5432	1
5543	5405	5406	2
5544	5405	5407	1
5545	5406	5408	1
5546	5406	5409	1
5547	5407	5410	1
5548	5407	5411	1
5549	5407	5412	1
5550	5408	5410	1
5551	5408	5413	2
5552	5409	5414	3
5553	5411	5415	1
5554	5411	5416	1
5555	5411	5417	1
5556	5412	5418	1
5557	5412	5419	2
5558	5413	5420	1
5559	5413	5421	1
5560	5418	5422	1
5561	5418	5423	2
5562	5419	5424	1
5563	5419	5425	1
5564	5420	5426	3
5565	5421	5427	3
5566	5423	5428	1
5567	5423	5429	1
5568	5424	5429	2
5569	5424	5430	1
5570	5429	5431	1
5571	5435	5438	1
5572	5435	5490	1
5573	5435	5491	1
5574	5436	5437	1
5575	5436	5486	1
5576	5436	5489	1
5577	5437	5440	1
5578	5437	5487	1
5579	5437	5488	1
5580	5438	5439	1
5581	5438	5485	1
5582	5438	5492	1
5583	5439	5483	1
5584	5440	5484	1
5585	5441	5447	1
5586	5441	5459	1
5587	5441	5463	1
5588	5441	5484	1
5589	5442	5443	1
5590	5442	5451	1
5591	5442	5455	1
5592	5442	5483	1
5593	5443	5444	1
5594	5443	5445	1
5595	5443	5446	1
5596	5447	5448	1
5597	5447	5449	1
5598	5447	5450	1
5599	5451	5452	1
5600	5451	5453	1
5601	5451	5454	1
5602	5455	5456	1
5603	5455	5457	1
5604	5455	5458	1
5605	5459	5460	1
5606	5459	5461	1
5607	5459	5462	1
5608	5463	5464	1
5609	5463	5465	1
5610	5463	5466	1
5611	5467	5468	1
5612	5467	5469	1
5613	5467	5470	1
5614	5467	5484	1
5615	5471	5472	1
5616	5471	5473	1
5617	5471	5474	1
5618	5471	5484	1
5619	5475	5476	1
5620	5475	5477	1
5621	5475	5478	1
5622	5475	5483	1
5623	5479	5480	1
5624	5479	5481	1
5625	5479	5482	1
5626	5479	5483	1
5627	5493	5494	1
5628	5493	5495	1
5629	5493	5496	1
5630	5497	5498	1
5631	5497	5499	1
5632	5497	5500	1
5633	5501	5502	2
5634	5501	5504	1
5635	5501	5509	1
5636	5502	5503	1
5637	5502	5516	1
5638	5505	5506	1
5639	5505	5560	1
5640	5505	5561	1
5641	5506	5507	1
5642	5506	5511	1
5643	5507	5508	2
5644	5507	5512	1
5645	5508	5509	1
5646	5508	5513	1
5647	5509	5510	2
5648	5510	5511	1
5649	5510	5514	1
5650	5511	5515	1
5651	5516	5517	2
5652	5516	5518	1
5653	5517	5519	1
5654	5517	5524	1
5655	5518	5520	1
5656	5518	5521	1
5657	5518	5559	1
5658	5520	5522	1
5659	5520	5618	1
5660	5520	5622	1
5661	5522	5523	1
5662	5522	5524	1
5663	5522	5558	1
5664	5524	5525	2
5665	5525	5526	1
5666	5525	5527	1
5667	5527	5528	2
5668	5527	5529	1
5669	5528	5530	1
5670	5528	5557	1
5671	5530	5531	2
5672	5530	5532	1
5673	5531	5533	1
5674	5531	5534	1
5675	5532	5535	1
5676	5532	5536	1
5677	5532	5537	1
5678	5533	5535	1
5679	5533	5538	2
5680	5534	5539	3
5681	5536	5540	1
5682	5536	5541	1
5683	5536	5542	1
5684	5537	5543	1
5685	5537	5544	2
5686	5538	5545	1
5687	5538	5546	1
5688	5543	5547	1
5689	5543	5548	2
5690	5544	5549	1
5691	5544	5550	1
5692	5545	5551	3
5693	5546	5552	3
5694	5548	5553	1
5695	5548	5554	1
5696	5549	5554	2
5697	5549	5555	1
5698	5554	5556	1
5699	5560	5563	1
5700	5560	5615	1
5701	5560	5616	1
5702	5561	5562	1
5703	5561	5611	1
5704	5561	5614	1
5705	5562	5565	1
5706	5562	5612	1
5707	5562	5613	1
5708	5563	5564	1
5709	5563	5610	1
5710	5563	5617	1
5711	5564	5608	1
5712	5565	5609	1
5713	5566	5572	1
5714	5566	5584	1
5715	5566	5588	1
5716	5566	5609	1
5717	5567	5568	1
5718	5567	5576	1
5719	5567	5580	1
5720	5567	5608	1
5721	5568	5569	1
5722	5568	5570	1
5723	5568	5571	1
5724	5572	5573	1
5725	5572	5574	1
5726	5572	5575	1
5727	5576	5577	1
5728	5576	5578	1
5729	5576	5579	1
5730	5580	5581	1
5731	5580	5582	1
5732	5580	5583	1
5733	5584	5585	1
5734	5584	5586	1
5735	5584	5587	1
5736	5588	5589	1
5737	5588	5590	1
5738	5588	5591	1
5739	5592	5593	1
5740	5592	5594	1
5741	5592	5595	1
5742	5592	5609	1
5743	5596	5597	1
5744	5596	5598	1
5745	5596	5599	1
5746	5596	5609	1
5747	5600	5601	1
5748	5600	5602	1
5749	5600	5603	1
5750	5600	5608	1
5751	5604	5605	1
5752	5604	5606	1
5753	5604	5607	1
5754	5604	5608	1
5755	5618	5619	1
5756	5618	5620	1
5757	5618	5621	1
5758	5622	5623	1
5759	5622	5624	1
5760	5622	5625	1
5761	5626	5627	2
5762	5626	5629	1
5763	5626	5634	1
5764	5627	5628	1
5765	5627	5641	1
5766	5630	5631	1
5767	5630	5685	1
5768	5630	5686	1
5769	5631	5632	1
5770	5631	5636	1
5771	5632	5633	2
5772	5632	5637	1
5773	5633	5634	1
5774	5633	5638	1
5775	5634	5635	2
5776	5635	5636	1
5777	5635	5639	1
5778	5636	5640	1
5779	5641	5642	2
5780	5641	5643	1
5781	5642	5644	1
5782	5642	5649	1
5783	5643	5645	1
5784	5643	5646	1
5785	5643	5684	1
5786	5645	5647	1
5787	5645	5743	1
5788	5645	5747	1
5789	5647	5648	1
5790	5647	5649	1
5791	5647	5683	1
5792	5649	5650	2
5793	5650	5651	1
5794	5650	5652	1
5795	5652	5653	2
5796	5652	5654	1
5797	5653	5655	1
5798	5653	5682	1
5799	5655	5656	2
5800	5655	5657	1
5801	5656	5658	1
5802	5656	5659	1
5803	5657	5660	1
5804	5657	5661	1
5805	5657	5662	1
5806	5658	5660	1
5807	5658	5663	2
5808	5659	5664	3
5809	5661	5665	1
5810	5661	5666	1
5811	5661	5667	1
5812	5662	5668	1
5813	5662	5669	2
5814	5663	5670	1
5815	5663	5671	1
5816	5668	5672	1
5817	5668	5673	2
5818	5669	5674	1
5819	5669	5675	1
5820	5670	5676	3
5821	5671	5677	3
5822	5673	5678	1
5823	5673	5679	1
5824	5674	5679	2
5825	5674	5680	1
5826	5679	5681	1
5827	5685	5688	1
5828	5685	5740	1
5829	5685	5741	1
5830	5686	5687	1
5831	5686	5736	1
5832	5686	5739	1
5833	5687	5690	1
5834	5687	5737	1
5835	5687	5738	1
5836	5688	5689	1
5837	5688	5735	1
5838	5688	5742	1
5839	5689	5733	1
5840	5690	5734	1
5841	5691	5697	1
5842	5691	5709	1
5843	5691	5713	1
5844	5691	5734	1
5845	5692	5693	1
5846	5692	5701	1
5847	5692	5705	1
5848	5692	5733	1
5849	5693	5694	1
5850	5693	5695	1
5851	5693	5696	1
5852	5697	5698	1
5853	5697	5699	1
5854	5697	5700	1
5855	5701	5702	1
5856	5701	5703	1
5857	5701	5704	1
5858	5705	5706	1
5859	5705	5707	1
5860	5705	5708	1
5861	5709	5710	1
5862	5709	5711	1
5863	5709	5712	1
5864	5713	5714	1
5865	5713	5715	1
5866	5713	5716	1
5867	5717	5718	1
5868	5717	5719	1
5869	5717	5720	1
5870	5717	5734	1
5871	5721	5722	1
5872	5721	5723	1
5873	5721	5724	1
5874	5721	5734	1
5875	5725	5726	1
5876	5725	5727	1
5877	5725	5728	1
5878	5725	5733	1
5879	5729	5730	1
5880	5729	5731	1
5881	5729	5732	1
5882	5729	5733	1
5883	5743	5744	1
5884	5743	5745	1
5885	5743	5746	1
5886	5747	5748	1
5887	5747	5749	1
5888	5747	5750	1
5889	5751	5752	2
5890	5751	5754	1
5891	5751	5759	1
5892	5752	5753	1
5893	5752	5766	1
5894	5755	5756	1
5895	5755	5797	1
5896	5755	5798	1
5897	5756	5757	1
5898	5756	5761	1
5899	5757	5758	2
5900	5757	5762	1
5901	5758	5759	1
5902	5758	5763	1
5903	5759	5760	2
5904	5760	5761	1
5905	5760	5764	1
5906	5761	5765	1
5907	5766	5767	2
5908	5766	5768	1
5909	5767	5769	1
5910	5767	5774	1
5911	5768	5770	1
5912	5768	5771	1
5913	5768	5796	1
5914	5770	5772	1
5915	5770	5855	1
5916	5770	5859	1
5917	5772	5773	1
5918	5772	5774	1
5919	5772	5795	1
5920	5774	5775	2
5921	5775	5776	1
5922	5775	5777	1
5923	5777	5778	2
5924	5777	5779	1
5925	5778	5780	1
5926	5778	5794	1
5927	5780	5781	2
5928	5780	5782	1
5929	5781	5783	1
5930	5781	5784	1
5931	5782	5785	1
5932	5782	5786	1
5933	5782	5787	1
5934	5783	5785	1
5935	5783	5788	2
5936	5784	5789	3
5937	5786	5863	1
5938	5786	5864	2
5939	5787	5873	1
5940	5787	5874	1
5941	5787	5875	1
5942	5788	5790	1
5943	5788	5791	1
5944	5790	5792	3
5945	5791	5793	3
5946	5797	5800	1
5947	5797	5852	1
5948	5797	5853	1
5949	5798	5799	1
5950	5798	5848	1
5951	5798	5851	1
5952	5799	5802	1
5953	5799	5849	1
5954	5799	5850	1
5955	5800	5801	1
5956	5800	5847	1
5957	5800	5854	1
5958	5801	5845	1
5959	5802	5846	1
5960	5803	5809	1
5961	5803	5821	1
5962	5803	5825	1
5963	5803	5846	1
5964	5804	5805	1
5965	5804	5813	1
5966	5804	5817	1
5967	5804	5845	1
5968	5805	5806	1
5969	5805	5807	1
5970	5805	5808	1
5971	5809	5810	1
5972	5809	5811	1
5973	5809	5812	1
5974	5813	5814	1
5975	5813	5815	1
5976	5813	5816	1
5977	5817	5818	1
5978	5817	5819	1
5979	5817	5820	1
5980	5821	5822	1
5981	5821	5823	1
5982	5821	5824	1
5983	5825	5826	1
5984	5825	5827	1
5985	5825	5828	1
5986	5829	5830	1
5987	5829	5831	1
5988	5829	5832	1
5989	5829	5846	1
5990	5833	5834	1
5991	5833	5835	1
5992	5833	5836	1
5993	5833	5846	1
5994	5837	5838	1
5995	5837	5839	1
5996	5837	5840	1
5997	5837	5845	1
5998	5841	5842	1
5999	5841	5843	1
6000	5841	5844	1
6001	5841	5845	1
6002	5855	5856	1
6003	5855	5857	1
6004	5855	5858	1
6005	5859	5860	1
6006	5859	5861	1
6007	5859	5862	1
6008	5863	5865	2
6009	5863	5866	1
6010	5864	5867	1
6011	5864	5868	1
6012	5865	5869	1
6013	5865	5870	1
6014	5867	5869	2
6015	5867	5872	1
6016	5869	5871	1
6017	5876	5877	2
6018	5876	5879	1
6019	5876	5884	1
6020	5877	5878	1
6021	5877	5891	1
6022	5880	5881	1
6023	5880	5922	1
6024	5880	5923	1
6025	5881	5882	1
6026	5881	5886	1
6027	5882	5883	2
6028	5882	5887	1
6029	5883	5884	1
6030	5883	5888	1
6031	5884	5885	2
6032	5885	5886	1
6033	5885	5889	1
6034	5886	5890	1
6035	5891	5892	2
6036	5891	5893	1
6037	5892	5894	1
6038	5892	5899	1
6039	5893	5895	1
6040	5893	5896	1
6041	5893	5921	1
6042	5895	5897	1
6043	5895	5980	1
6044	5895	5984	1
6045	5897	5898	1
6046	5897	5899	1
6047	5897	5920	1
6048	5899	5900	2
6049	5900	5901	1
6050	5900	5902	1
6051	5902	5903	2
6052	5902	5904	1
6053	5903	5905	1
6054	5903	5919	1
6055	5905	5906	2
6056	5905	5907	1
6057	5906	5908	1
6058	5906	5909	1
6059	5907	5910	1
6060	5907	5911	1
6061	5907	5912	1
6062	5908	5910	1
6063	5908	5913	2
6064	5909	5914	3
6065	5911	5988	1
6066	5911	5989	2
6067	5912	5998	1
6068	5912	5999	1
6069	5912	6000	1
6070	5913	5915	1
6071	5913	5916	1
6072	5915	5917	3
6073	5916	5918	3
6074	5922	5925	1
6075	5922	5977	1
6076	5922	5978	1
6077	5923	5924	1
6078	5923	5973	1
6079	5923	5976	1
6080	5924	5927	1
6081	5924	5974	1
6082	5924	5975	1
6083	5925	5926	1
6084	5925	5972	1
6085	5925	5979	1
6086	5926	5970	1
6087	5927	5971	1
6088	5928	5934	1
6089	5928	5946	1
6090	5928	5950	1
6091	5928	5971	1
6092	5929	5930	1
6093	5929	5938	1
6094	5929	5942	1
6095	5929	5970	1
6096	5930	5931	1
6097	5930	5932	1
6098	5930	5933	1
6099	5934	5935	1
6100	5934	5936	1
6101	5934	5937	1
6102	5938	5939	1
6103	5938	5940	1
6104	5938	5941	1
6105	5942	5943	1
6106	5942	5944	1
6107	5942	5945	1
6108	5946	5947	1
6109	5946	5948	1
6110	5946	5949	1
6111	5950	5951	1
6112	5950	5952	1
6113	5950	5953	1
6114	5954	5955	1
6115	5954	5956	1
6116	5954	5957	1
6117	5954	5971	1
6118	5958	5959	1
6119	5958	5960	1
6120	5958	5961	1
6121	5958	5971	1
6122	5962	5963	1
6123	5962	5964	1
6124	5962	5965	1
6125	5962	5970	1
6126	5966	5967	1
6127	5966	5968	1
6128	5966	5969	1
6129	5966	5970	1
6130	5980	5981	1
6131	5980	5982	1
6132	5980	5983	1
6133	5984	5985	1
6134	5984	5986	1
6135	5984	5987	1
6136	5988	5990	2
6137	5988	5991	1
6138	5989	5992	1
6139	5989	5993	1
6140	5990	5994	1
6141	5990	5995	1
6142	5992	5994	2
6143	5992	5997	1
6144	5994	5996	1
6145	6001	6002	2
6146	6001	6004	1
6147	6001	6009	1
6148	6002	6003	1
6149	6002	6016	1
6150	6005	6006	1
6151	6005	6060	1
6152	6005	6061	1
6153	6006	6007	1
6154	6006	6011	1
6155	6007	6008	2
6156	6007	6012	1
6157	6008	6009	1
6158	6008	6013	1
6159	6009	6010	2
6160	6010	6011	1
6161	6010	6014	1
6162	6011	6015	1
6163	6016	6017	2
6164	6016	6018	1
6165	6017	6019	1
6166	6017	6024	1
6167	6018	6020	1
6168	6018	6021	1
6169	6018	6059	1
6170	6020	6022	1
6171	6020	6118	1
6172	6020	6122	1
6173	6022	6023	1
6174	6022	6024	1
6175	6022	6058	1
6176	6024	6025	2
6177	6025	6026	1
6178	6025	6027	1
6179	6027	6028	2
6180	6027	6029	1
6181	6028	6030	1
6182	6028	6057	1
6183	6030	6031	2
6184	6030	6032	1
6185	6031	6033	1
6186	6031	6034	1
6187	6032	6035	1
6188	6032	6036	1
6189	6032	6037	1
6190	6033	6035	1
6191	6033	6038	2
6192	6034	6039	3
6193	6036	6040	1
6194	6036	6041	1
6195	6036	6042	1
6196	6037	6043	1
6197	6037	6044	2
6198	6038	6045	1
6199	6038	6046	1
6200	6043	6047	1
6201	6043	6048	2
6202	6044	6049	1
6203	6044	6050	1
6204	6045	6051	3
6205	6046	6052	3
6206	6048	6053	1
6207	6048	6054	1
6208	6049	6054	2
6209	6049	6055	1
6210	6054	6056	1
6211	6060	6063	1
6212	6060	6115	1
6213	6060	6116	1
6214	6061	6062	1
6215	6061	6111	1
6216	6061	6114	1
6217	6062	6065	1
6218	6062	6112	1
6219	6062	6113	1
6220	6063	6064	1
6221	6063	6110	1
6222	6063	6117	1
6223	6064	6108	1
6224	6065	6109	1
6225	6066	6072	1
6226	6066	6084	1
6227	6066	6088	1
6228	6066	6109	1
6229	6067	6068	1
6230	6067	6076	1
6231	6067	6080	1
6232	6067	6108	1
6233	6068	6069	1
6234	6068	6070	1
6235	6068	6071	1
6236	6072	6073	1
6237	6072	6074	1
6238	6072	6075	1
6239	6076	6077	1
6240	6076	6078	1
6241	6076	6079	1
6242	6080	6081	1
6243	6080	6082	1
6244	6080	6083	1
6245	6084	6085	1
6246	6084	6086	1
6247	6084	6087	1
6248	6088	6089	1
6249	6088	6090	1
6250	6088	6091	1
6251	6092	6093	1
6252	6092	6094	1
6253	6092	6095	1
6254	6092	6109	1
6255	6096	6097	1
6256	6096	6098	1
6257	6096	6099	1
6258	6096	6109	1
6259	6100	6101	1
6260	6100	6102	1
6261	6100	6103	1
6262	6100	6108	1
6263	6104	6105	1
6264	6104	6106	1
6265	6104	6107	1
6266	6104	6108	1
6267	6118	6119	1
6268	6118	6120	1
6269	6118	6121	1
6270	6122	6123	1
6271	6122	6124	1
6272	6122	6125	1
6273	6126	6127	2
6274	6126	6129	1
6275	6126	6134	1
6276	6127	6128	1
6277	6127	6141	1
6278	6130	6131	1
6279	6130	6185	1
6280	6130	6186	1
6281	6131	6132	1
6282	6131	6136	1
6283	6132	6133	2
6284	6132	6137	1
6285	6133	6134	1
6286	6133	6138	1
6287	6134	6135	2
6288	6135	6136	1
6289	6135	6139	1
6290	6136	6140	1
6291	6141	6142	2
6292	6141	6143	1
6293	6142	6144	1
6294	6142	6149	1
6295	6143	6145	1
6296	6143	6146	1
6297	6143	6184	1
6298	6145	6147	1
6299	6145	6243	1
6300	6145	6247	1
6301	6147	6148	1
6302	6147	6149	1
6303	6147	6183	1
6304	6149	6150	2
6305	6150	6151	1
6306	6150	6152	1
6307	6152	6153	2
6308	6152	6154	1
6309	6153	6155	1
6310	6153	6182	1
6311	6155	6156	2
6312	6155	6157	1
6313	6156	6158	1
6314	6156	6159	1
6315	6157	6160	1
6316	6157	6161	1
6317	6157	6162	1
6318	6158	6160	1
6319	6158	6163	2
6320	6159	6164	3
6321	6161	6165	1
6322	6161	6166	1
6323	6161	6167	1
6324	6162	6168	1
6325	6162	6169	2
6326	6163	6170	1
6327	6163	6171	1
6328	6168	6172	1
6329	6168	6173	2
6330	6169	6174	1
6331	6169	6175	1
6332	6170	6176	3
6333	6171	6177	3
6334	6173	6178	1
6335	6173	6179	1
6336	6174	6179	2
6337	6174	6180	1
6338	6179	6181	1
6339	6185	6188	1
6340	6185	6240	1
6341	6185	6241	1
6342	6186	6187	1
6343	6186	6236	1
6344	6186	6239	1
6345	6187	6190	1
6346	6187	6237	1
6347	6187	6238	1
6348	6188	6189	1
6349	6188	6235	1
6350	6188	6242	1
6351	6189	6233	1
6352	6190	6234	1
6353	6191	6197	1
6354	6191	6209	1
6355	6191	6213	1
6356	6191	6234	1
6357	6192	6193	1
6358	6192	6201	1
6359	6192	6205	1
6360	6192	6233	1
6361	6193	6194	1
6362	6193	6195	1
6363	6193	6196	1
6364	6197	6198	1
6365	6197	6199	1
6366	6197	6200	1
6367	6201	6202	1
6368	6201	6203	1
6369	6201	6204	1
6370	6205	6206	1
6371	6205	6207	1
6372	6205	6208	1
6373	6209	6210	1
6374	6209	6211	1
6375	6209	6212	1
6376	6213	6214	1
6377	6213	6215	1
6378	6213	6216	1
6379	6217	6218	1
6380	6217	6219	1
6381	6217	6220	1
6382	6217	6234	1
6383	6221	6222	1
6384	6221	6223	1
6385	6221	6224	1
6386	6221	6234	1
6387	6225	6226	1
6388	6225	6227	1
6389	6225	6228	1
6390	6225	6233	1
6391	6229	6230	1
6392	6229	6231	1
6393	6229	6232	1
6394	6229	6233	1
6395	6243	6244	1
6396	6243	6245	1
6397	6243	6246	1
6398	6247	6248	1
6399	6247	6249	1
6400	6247	6250	1
6401	6251	6252	2
6402	6251	6254	1
6403	6251	6259	1
6404	6252	6253	1
6405	6252	6266	1
6406	6255	6256	1
6407	6255	6310	1
6408	6255	6311	1
6409	6256	6257	1
6410	6256	6261	1
6411	6257	6258	2
6412	6257	6262	1
6413	6258	6259	1
6414	6258	6263	1
6415	6259	6260	2
6416	6260	6261	1
6417	6260	6264	1
6418	6261	6265	1
6419	6266	6267	2
6420	6266	6268	1
6421	6267	6269	1
6422	6267	6274	1
6423	6268	6270	1
6424	6268	6271	1
6425	6268	6309	1
6426	6270	6272	1
6427	6270	6368	1
6428	6270	6372	1
6429	6272	6273	1
6430	6272	6274	1
6431	6272	6308	1
6432	6274	6275	2
6433	6275	6276	1
6434	6275	6277	1
6435	6277	6278	2
6436	6277	6279	1
6437	6278	6280	1
6438	6278	6307	1
6439	6280	6281	2
6440	6280	6282	1
6441	6281	6283	1
6442	6281	6284	1
6443	6282	6285	1
6444	6282	6286	1
6445	6282	6287	1
6446	6283	6285	1
6447	6283	6288	2
6448	6284	6289	3
6449	6286	6290	1
6450	6286	6291	1
6451	6286	6292	1
6452	6287	6293	1
6453	6287	6294	2
6454	6288	6295	1
6455	6288	6296	1
6456	6293	6297	1
6457	6293	6298	2
6458	6294	6299	1
6459	6294	6300	1
6460	6295	6301	3
6461	6296	6302	3
6462	6298	6303	1
6463	6298	6304	1
6464	6299	6304	2
6465	6299	6305	1
6466	6304	6306	1
6467	6310	6313	1
6468	6310	6365	1
6469	6310	6366	1
6470	6311	6312	1
6471	6311	6361	1
6472	6311	6364	1
6473	6312	6315	1
6474	6312	6362	1
6475	6312	6363	1
6476	6313	6314	1
6477	6313	6360	1
6478	6313	6367	1
6479	6314	6358	1
6480	6315	6359	1
6481	6316	6322	1
6482	6316	6334	1
6483	6316	6338	1
6484	6316	6359	1
6485	6317	6318	1
6486	6317	6326	1
6487	6317	6330	1
6488	6317	6358	1
6489	6318	6319	1
6490	6318	6320	1
6491	6318	6321	1
6492	6322	6323	1
6493	6322	6324	1
6494	6322	6325	1
6495	6326	6327	1
6496	6326	6328	1
6497	6326	6329	1
6498	6330	6331	1
6499	6330	6332	1
6500	6330	6333	1
6501	6334	6335	1
6502	6334	6336	1
6503	6334	6337	1
6504	6338	6339	1
6505	6338	6340	1
6506	6338	6341	1
6507	6342	6343	1
6508	6342	6344	1
6509	6342	6345	1
6510	6342	6359	1
6511	6346	6347	1
6512	6346	6348	1
6513	6346	6349	1
6514	6346	6359	1
6515	6350	6351	1
6516	6350	6352	1
6517	6350	6353	1
6518	6350	6358	1
6519	6354	6355	1
6520	6354	6356	1
6521	6354	6357	1
6522	6354	6358	1
6523	6368	6369	1
6524	6368	6370	1
6525	6368	6371	1
6526	6372	6373	1
6527	6372	6374	1
6528	6372	6375	1
6529	6376	6377	2
6530	6376	6379	1
6531	6376	6384	1
6532	6377	6378	1
6533	6377	6391	1
6534	6380	6381	1
6535	6380	6422	1
6536	6380	6423	1
6537	6381	6382	1
6538	6381	6386	1
6539	6382	6383	2
6540	6382	6387	1
6541	6383	6384	1
6542	6383	6388	1
6543	6384	6385	2
6544	6385	6386	1
6545	6385	6389	1
6546	6386	6390	1
6547	6391	6392	2
6548	6391	6393	1
6549	6392	6394	1
6550	6392	6399	1
6551	6393	6395	1
6552	6393	6396	1
6553	6393	6421	1
6554	6395	6397	1
6555	6395	6480	1
6556	6395	6484	1
6557	6397	6398	1
6558	6397	6399	1
6559	6397	6420	1
6560	6399	6400	2
6561	6400	6401	1
6562	6400	6402	1
6563	6402	6403	2
6564	6402	6404	1
6565	6403	6405	1
6566	6403	6419	1
6567	6405	6406	2
6568	6405	6407	1
6569	6406	6408	1
6570	6406	6409	1
6571	6407	6410	1
6572	6407	6411	1
6573	6407	6412	1
6574	6408	6410	1
6575	6408	6413	2
6576	6409	6414	3
6577	6411	6488	1
6578	6411	6489	2
6579	6412	6498	1
6580	6412	6499	1
6581	6412	6500	1
6582	6413	6415	1
6583	6413	6416	1
6584	6415	6417	3
6585	6416	6418	3
6586	6422	6425	1
6587	6422	6477	1
6588	6422	6478	1
6589	6423	6424	1
6590	6423	6473	1
6591	6423	6476	1
6592	6424	6427	1
6593	6424	6474	1
6594	6424	6475	1
6595	6425	6426	1
6596	6425	6472	1
6597	6425	6479	1
6598	6426	6470	1
6599	6427	6471	1
6600	6428	6434	1
6601	6428	6446	1
6602	6428	6450	1
6603	6428	6471	1
6604	6429	6430	1
6605	6429	6438	1
6606	6429	6442	1
6607	6429	6470	1
6608	6430	6431	1
6609	6430	6432	1
6610	6430	6433	1
6611	6434	6435	1
6612	6434	6436	1
6613	6434	6437	1
6614	6438	6439	1
6615	6438	6440	1
6616	6438	6441	1
6617	6442	6443	1
6618	6442	6444	1
6619	6442	6445	1
6620	6446	6447	1
6621	6446	6448	1
6622	6446	6449	1
6623	6450	6451	1
6624	6450	6452	1
6625	6450	6453	1
6626	6454	6455	1
6627	6454	6456	1
6628	6454	6457	1
6629	6454	6471	1
6630	6458	6459	1
6631	6458	6460	1
6632	6458	6461	1
6633	6458	6471	1
6634	6462	6463	1
6635	6462	6464	1
6636	6462	6465	1
6637	6462	6470	1
6638	6466	6467	1
6639	6466	6468	1
6640	6466	6469	1
6641	6466	6470	1
6642	6480	6481	1
6643	6480	6482	1
6644	6480	6483	1
6645	6484	6485	1
6646	6484	6486	1
6647	6484	6487	1
6648	6488	6490	2
6649	6488	6491	1
6650	6489	6492	1
6651	6489	6493	1
6652	6490	6494	1
6653	6490	6495	1
6654	6492	6494	2
6655	6492	6497	1
6656	6494	6496	1
6657	6501	6502	2
6658	6501	6504	1
6659	6501	6509	1
6660	6502	6503	1
6661	6502	6516	1
6662	6505	6506	1
6663	6505	6547	1
6664	6505	6548	1
6665	6506	6507	1
6666	6506	6511	1
6667	6507	6508	2
6668	6507	6512	1
6669	6508	6509	1
6670	6508	6513	1
6671	6509	6510	2
6672	6510	6511	1
6673	6510	6514	1
6674	6511	6515	1
6675	6516	6517	2
6676	6516	6518	1
6677	6517	6519	1
6678	6517	6524	1
6679	6518	6520	1
6680	6518	6521	1
6681	6518	6546	1
6682	6520	6522	1
6683	6520	6605	1
6684	6520	6609	1
6685	6522	6523	1
6686	6522	6524	1
6687	6522	6545	1
6688	6524	6525	2
6689	6525	6526	1
6690	6525	6527	1
6691	6527	6528	2
6692	6527	6529	1
6693	6528	6530	1
6694	6528	6544	1
6695	6530	6531	2
6696	6530	6532	1
6697	6531	6533	1
6698	6531	6534	1
6699	6532	6535	1
6700	6532	6536	1
6701	6532	6537	1
6702	6533	6535	1
6703	6533	6538	2
6704	6534	6539	3
6705	6536	6613	1
6706	6536	6614	2
6707	6537	6623	1
6708	6537	6624	1
6709	6537	6625	1
6710	6538	6540	1
6711	6538	6541	1
6712	6540	6542	3
6713	6541	6543	3
6714	6547	6550	1
6715	6547	6602	1
6716	6547	6603	1
6717	6548	6549	1
6718	6548	6598	1
6719	6548	6601	1
6720	6549	6552	1
6721	6549	6599	1
6722	6549	6600	1
6723	6550	6551	1
6724	6550	6597	1
6725	6550	6604	1
6726	6551	6595	1
6727	6552	6596	1
6728	6553	6559	1
6729	6553	6571	1
6730	6553	6575	1
6731	6553	6596	1
6732	6554	6555	1
6733	6554	6563	1
6734	6554	6567	1
6735	6554	6595	1
6736	6555	6556	1
6737	6555	6557	1
6738	6555	6558	1
6739	6559	6560	1
6740	6559	6561	1
6741	6559	6562	1
6742	6563	6564	1
6743	6563	6565	1
6744	6563	6566	1
6745	6567	6568	1
6746	6567	6569	1
6747	6567	6570	1
6748	6571	6572	1
6749	6571	6573	1
6750	6571	6574	1
6751	6575	6576	1
6752	6575	6577	1
6753	6575	6578	1
6754	6579	6580	1
6755	6579	6581	1
6756	6579	6582	1
6757	6579	6596	1
6758	6583	6584	1
6759	6583	6585	1
6760	6583	6586	1
6761	6583	6596	1
6762	6587	6588	1
6763	6587	6589	1
6764	6587	6590	1
6765	6587	6595	1
6766	6591	6592	1
6767	6591	6593	1
6768	6591	6594	1
6769	6591	6595	1
6770	6605	6606	1
6771	6605	6607	1
6772	6605	6608	1
6773	6609	6610	1
6774	6609	6611	1
6775	6609	6612	1
6776	6613	6615	2
6777	6613	6616	1
6778	6614	6617	1
6779	6614	6618	1
6780	6615	6619	1
6781	6615	6620	1
6782	6617	6619	2
6783	6617	6622	1
6784	6619	6621	1
6785	6626	6627	2
6786	6626	6629	1
6787	6626	6634	1
6788	6627	6628	1
6789	6627	6641	1
6790	6630	6631	1
6791	6630	6685	1
6792	6630	6686	1
6793	6631	6632	1
6794	6631	6636	1
6795	6632	6633	2
6796	6632	6637	1
6797	6633	6634	1
6798	6633	6638	1
6799	6634	6635	2
6800	6635	6636	1
6801	6635	6639	1
6802	6636	6640	1
6803	6641	6642	2
6804	6641	6643	1
6805	6642	6644	1
6806	6642	6649	1
6807	6643	6645	1
6808	6643	6646	1
6809	6643	6684	1
6810	6645	6647	1
6811	6645	6743	1
6812	6645	6747	1
6813	6647	6648	1
6814	6647	6649	1
6815	6647	6683	1
6816	6649	6650	2
6817	6650	6651	1
6818	6650	6652	1
6819	6652	6653	2
6820	6652	6654	1
6821	6653	6655	1
6822	6653	6682	1
6823	6655	6656	2
6824	6655	6657	1
6825	6656	6658	1
6826	6656	6659	1
6827	6657	6660	1
6828	6657	6661	1
6829	6657	6662	1
6830	6658	6660	1
6831	6658	6663	2
6832	6659	6664	3
6833	6661	6665	1
6834	6661	6666	1
6835	6661	6667	1
6836	6662	6668	1
6837	6662	6669	2
6838	6663	6670	1
6839	6663	6671	1
6840	6668	6672	1
6841	6668	6673	2
6842	6669	6674	1
6843	6669	6675	1
6844	6670	6676	3
6845	6671	6677	3
6846	6673	6678	1
6847	6673	6679	1
6848	6674	6679	2
6849	6674	6680	1
6850	6679	6681	1
6851	6685	6688	1
6852	6685	6740	1
6853	6685	6741	1
6854	6686	6687	1
6855	6686	6736	1
6856	6686	6739	1
6857	6687	6690	1
6858	6687	6737	1
6859	6687	6738	1
6860	6688	6689	1
6861	6688	6735	1
6862	6688	6742	1
6863	6689	6733	1
6864	6690	6734	1
6865	6691	6697	1
6866	6691	6709	1
6867	6691	6713	1
6868	6691	6734	1
6869	6692	6693	1
6870	6692	6701	1
6871	6692	6705	1
6872	6692	6733	1
6873	6693	6694	1
6874	6693	6695	1
6875	6693	6696	1
6876	6697	6698	1
6877	6697	6699	1
6878	6697	6700	1
6879	6701	6702	1
6880	6701	6703	1
6881	6701	6704	1
6882	6705	6706	1
6883	6705	6707	1
6884	6705	6708	1
6885	6709	6710	1
6886	6709	6711	1
6887	6709	6712	1
6888	6713	6714	1
6889	6713	6715	1
6890	6713	6716	1
6891	6717	6718	1
6892	6717	6719	1
6893	6717	6720	1
6894	6717	6734	1
6895	6721	6722	1
6896	6721	6723	1
6897	6721	6724	1
6898	6721	6734	1
6899	6725	6726	1
6900	6725	6727	1
6901	6725	6728	1
6902	6725	6733	1
6903	6729	6730	1
6904	6729	6731	1
6905	6729	6732	1
6906	6729	6733	1
6907	6743	6744	1
6908	6743	6745	1
6909	6743	6746	1
6910	6747	6748	1
6911	6747	6749	1
6912	6747	6750	1
6913	6751	6752	2
6914	6751	6754	1
6915	6751	6759	1
6916	6752	6753	1
6917	6752	6766	1
6918	6755	6756	1
6919	6755	6797	1
6920	6755	6798	1
6921	6756	6757	1
6922	6756	6761	1
6923	6757	6758	2
6924	6757	6762	1
6925	6758	6759	1
6926	6758	6763	1
6927	6759	6760	2
6928	6760	6761	1
6929	6760	6764	1
6930	6761	6765	1
6931	6766	6767	2
6932	6766	6768	1
6933	6767	6769	1
6934	6767	6774	1
6935	6768	6770	1
6936	6768	6771	1
6937	6768	6796	1
6938	6770	6772	1
6939	6770	6855	1
6940	6770	6859	1
6941	6772	6773	1
6942	6772	6774	1
6943	6772	6795	1
6944	6774	6775	2
6945	6775	6776	1
6946	6775	6777	1
6947	6777	6778	2
6948	6777	6779	1
6949	6778	6780	1
6950	6778	6794	1
6951	6780	6781	2
6952	6780	6782	1
6953	6781	6783	1
6954	6781	6784	1
6955	6782	6785	1
6956	6782	6786	1
6957	6782	6787	1
6958	6783	6785	1
6959	6783	6788	2
6960	6784	6789	3
6961	6786	6863	1
6962	6786	6864	2
6963	6787	6873	1
6964	6787	6874	1
6965	6787	6875	1
6966	6788	6790	1
6967	6788	6791	1
6968	6790	6792	3
6969	6791	6793	3
6970	6797	6800	1
6971	6797	6852	1
6972	6797	6853	1
6973	6798	6799	1
6974	6798	6848	1
6975	6798	6851	1
6976	6799	6802	1
6977	6799	6849	1
6978	6799	6850	1
6979	6800	6801	1
6980	6800	6847	1
6981	6800	6854	1
6982	6801	6845	1
6983	6802	6846	1
6984	6803	6809	1
6985	6803	6821	1
6986	6803	6825	1
6987	6803	6846	1
6988	6804	6805	1
6989	6804	6813	1
6990	6804	6817	1
6991	6804	6845	1
6992	6805	6806	1
6993	6805	6807	1
6994	6805	6808	1
6995	6809	6810	1
6996	6809	6811	1
6997	6809	6812	1
6998	6813	6814	1
6999	6813	6815	1
7000	6813	6816	1
7001	6817	6818	1
7002	6817	6819	1
7003	6817	6820	1
7004	6821	6822	1
7005	6821	6823	1
7006	6821	6824	1
7007	6825	6826	1
7008	6825	6827	1
7009	6825	6828	1
7010	6829	6830	1
7011	6829	6831	1
7012	6829	6832	1
7013	6829	6846	1
7014	6833	6834	1
7015	6833	6835	1
7016	6833	6836	1
7017	6833	6846	1
7018	6837	6838	1
7019	6837	6839	1
7020	6837	6840	1
7021	6837	6845	1
7022	6841	6842	1
7023	6841	6843	1
7024	6841	6844	1
7025	6841	6845	1
7026	6855	6856	1
7027	6855	6857	1
7028	6855	6858	1
7029	6859	6860	1
7030	6859	6861	1
7031	6859	6862	1
7032	6863	6865	2
7033	6863	6866	1
7034	6864	6867	1
7035	6864	6868	1
7036	6865	6869	1
7037	6865	6870	1
7038	6867	6869	2
7039	6867	6872	1
7040	6869	6871	1
7041	6876	6877	2
7042	6876	6879	1
7043	6876	6884	1
7044	6877	6878	1
7045	6877	6891	1
7046	6880	6881	1
7047	6880	6922	1
7048	6880	6923	1
7049	6881	6882	1
7050	6881	6886	1
7051	6882	6883	2
7052	6882	6887	1
7053	6883	6884	1
7054	6883	6888	1
7055	6884	6885	2
7056	6885	6886	1
7057	6885	6889	1
7058	6886	6890	1
7059	6891	6892	2
7060	6891	6893	1
7061	6892	6894	1
7062	6892	6899	1
7063	6893	6895	1
7064	6893	6896	1
7065	6893	6921	1
7066	6895	6897	1
7067	6895	6980	1
7068	6895	6984	1
7069	6897	6898	1
7070	6897	6899	1
7071	6897	6920	1
7072	6899	6900	2
7073	6900	6901	1
7074	6900	6902	1
7075	6902	6903	2
7076	6902	6904	1
7077	6903	6905	1
7078	6903	6919	1
7079	6905	6906	2
7080	6905	6907	1
7081	6906	6908	1
7082	6906	6909	1
7083	6907	6910	1
7084	6907	6911	1
7085	6907	6912	1
7086	6908	6910	1
7087	6908	6913	2
7088	6909	6914	3
7089	6911	6988	1
7090	6911	6989	2
7091	6912	6998	1
7092	6912	6999	1
7093	6912	7000	1
7094	6913	6915	1
7095	6913	6916	1
7096	6915	6917	3
7097	6916	6918	3
7098	6922	6925	1
7099	6922	6977	1
7100	6922	6978	1
7101	6923	6924	1
7102	6923	6973	1
7103	6923	6976	1
7104	6924	6927	1
7105	6924	6974	1
7106	6924	6975	1
7107	6925	6926	1
7108	6925	6972	1
7109	6925	6979	1
7110	6926	6970	1
7111	6927	6971	1
7112	6928	6934	1
7113	6928	6946	1
7114	6928	6950	1
7115	6928	6971	1
7116	6929	6930	1
7117	6929	6938	1
7118	6929	6942	1
7119	6929	6970	1
7120	6930	6931	1
7121	6930	6932	1
7122	6930	6933	1
7123	6934	6935	1
7124	6934	6936	1
7125	6934	6937	1
7126	6938	6939	1
7127	6938	6940	1
7128	6938	6941	1
7129	6942	6943	1
7130	6942	6944	1
7131	6942	6945	1
7132	6946	6947	1
7133	6946	6948	1
7134	6946	6949	1
7135	6950	6951	1
7136	6950	6952	1
7137	6950	6953	1
7138	6954	6955	1
7139	6954	6956	1
7140	6954	6957	1
7141	6954	6971	1
7142	6958	6959	1
7143	6958	6960	1
7144	6958	6961	1
7145	6958	6971	1
7146	6962	6963	1
7147	6962	6964	1
7148	6962	6965	1
7149	6962	6970	1
7150	6966	6967	1
7151	6966	6968	1
7152	6966	6969	1
7153	6966	6970	1
7154	6980	6981	1
7155	6980	6982	1
7156	6980	6983	1
7157	6984	6985	1
7158	6984	6986	1
7159	6984	6987	1
7160	6988	6990	2
7161	6988	6991	1
7162	6989	6992	1
7163	6989	6993	1
7164	6990	6994	1
7165	6990	6995	1
7166	6992	6994	2
7167	6992	6997	1
7168	6994	6996	1
7169	7001	7002	2
7170	7001	7004	1
7171	7001	7009	1
7172	7002	7003	1
7173	7002	7016	1
7174	7005	7006	1
7175	7005	7047	1
7176	7005	7048	1
7177	7006	7007	1
7178	7006	7011	1
7179	7007	7008	2
7180	7007	7012	1
7181	7008	7009	1
7182	7008	7013	1
7183	7009	7010	2
7184	7010	7011	1
7185	7010	7014	1
7186	7011	7015	1
7187	7016	7017	2
7188	7016	7018	1
7189	7017	7019	1
7190	7017	7024	1
7191	7018	7020	1
7192	7018	7021	1
7193	7018	7046	1
7194	7020	7022	1
7195	7020	7105	1
7196	7020	7109	1
7197	7022	7023	1
7198	7022	7024	1
7199	7022	7045	1
7200	7024	7025	2
7201	7025	7026	1
7202	7025	7027	1
7203	7027	7028	2
7204	7027	7029	1
7205	7028	7030	1
7206	7028	7044	1
7207	7030	7031	2
7208	7030	7032	1
7209	7031	7033	1
7210	7031	7034	1
7211	7032	7035	1
7212	7032	7036	1
7213	7032	7037	1
7214	7033	7035	1
7215	7033	7038	2
7216	7034	7039	3
7217	7036	7113	1
7218	7036	7114	2
7219	7037	7123	1
7220	7037	7124	1
7221	7037	7125	1
7222	7038	7040	1
7223	7038	7041	1
7224	7040	7042	3
7225	7041	7043	3
7226	7047	7050	1
7227	7047	7102	1
7228	7047	7103	1
7229	7048	7049	1
7230	7048	7098	1
7231	7048	7101	1
7232	7049	7052	1
7233	7049	7099	1
7234	7049	7100	1
7235	7050	7051	1
7236	7050	7097	1
7237	7050	7104	1
7238	7051	7095	1
7239	7052	7096	1
7240	7053	7059	1
7241	7053	7071	1
7242	7053	7075	1
7243	7053	7096	1
7244	7054	7055	1
7245	7054	7063	1
7246	7054	7067	1
7247	7054	7095	1
7248	7055	7056	1
7249	7055	7057	1
7250	7055	7058	1
7251	7059	7060	1
7252	7059	7061	1
7253	7059	7062	1
7254	7063	7064	1
7255	7063	7065	1
7256	7063	7066	1
7257	7067	7068	1
7258	7067	7069	1
7259	7067	7070	1
7260	7071	7072	1
7261	7071	7073	1
7262	7071	7074	1
7263	7075	7076	1
7264	7075	7077	1
7265	7075	7078	1
7266	7079	7080	1
7267	7079	7081	1
7268	7079	7082	1
7269	7079	7096	1
7270	7083	7084	1
7271	7083	7085	1
7272	7083	7086	1
7273	7083	7096	1
7274	7087	7088	1
7275	7087	7089	1
7276	7087	7090	1
7277	7087	7095	1
7278	7091	7092	1
7279	7091	7093	1
7280	7091	7094	1
7281	7091	7095	1
7282	7105	7106	1
7283	7105	7107	1
7284	7105	7108	1
7285	7109	7110	1
7286	7109	7111	1
7287	7109	7112	1
7288	7113	7115	2
7289	7113	7116	1
7290	7114	7117	1
7291	7114	7118	1
7292	7115	7119	1
7293	7115	7120	1
7294	7117	7119	2
7295	7117	7122	1
7296	7119	7121	1
7297	7126	7127	2
7298	7126	7129	1
7299	7126	7134	1
7300	7127	7128	1
7301	7127	7141	1
7302	7130	7131	1
7303	7130	7172	1
7304	7130	7173	1
7305	7131	7132	1
7306	7131	7136	1
7307	7132	7133	2
7308	7132	7137	1
7309	7133	7134	1
7310	7133	7138	1
7311	7134	7135	2
7312	7135	7136	1
7313	7135	7139	1
7314	7136	7140	1
7315	7141	7142	2
7316	7141	7143	1
7317	7142	7144	1
7318	7142	7149	1
7319	7143	7145	1
7320	7143	7146	1
7321	7143	7171	1
7322	7145	7147	1
7323	7145	7230	1
7324	7145	7234	1
7325	7147	7148	1
7326	7147	7149	1
7327	7147	7170	1
7328	7149	7150	2
7329	7150	7151	1
7330	7150	7152	1
7331	7152	7153	2
7332	7152	7154	1
7333	7153	7155	1
7334	7153	7169	1
7335	7155	7156	2
7336	7155	7157	1
7337	7156	7158	1
7338	7156	7159	1
7339	7157	7160	1
7340	7157	7161	1
7341	7157	7162	1
7342	7158	7160	1
7343	7158	7163	2
7344	7159	7164	3
7345	7161	7238	1
7346	7161	7239	2
7347	7162	7248	1
7348	7162	7249	1
7349	7162	7250	1
7350	7163	7165	1
7351	7163	7166	1
7352	7165	7167	3
7353	7166	7168	3
7354	7172	7175	1
7355	7172	7227	1
7356	7172	7228	1
7357	7173	7174	1
7358	7173	7223	1
7359	7173	7226	1
7360	7174	7177	1
7361	7174	7224	1
7362	7174	7225	1
7363	7175	7176	1
7364	7175	7222	1
7365	7175	7229	1
7366	7176	7220	1
7367	7177	7221	1
7368	7178	7184	1
7369	7178	7196	1
7370	7178	7200	1
7371	7178	7221	1
7372	7179	7180	1
7373	7179	7188	1
7374	7179	7192	1
7375	7179	7220	1
7376	7180	7181	1
7377	7180	7182	1
7378	7180	7183	1
7379	7184	7185	1
7380	7184	7186	1
7381	7184	7187	1
7382	7188	7189	1
7383	7188	7190	1
7384	7188	7191	1
7385	7192	7193	1
7386	7192	7194	1
7387	7192	7195	1
7388	7196	7197	1
7389	7196	7198	1
7390	7196	7199	1
7391	7200	7201	1
7392	7200	7202	1
7393	7200	7203	1
7394	7204	7205	1
7395	7204	7206	1
7396	7204	7207	1
7397	7204	7221	1
7398	7208	7209	1
7399	7208	7210	1
7400	7208	7211	1
7401	7208	7221	1
7402	7212	7213	1
7403	7212	7214	1
7404	7212	7215	1
7405	7212	7220	1
7406	7216	7217	1
7407	7216	7218	1
7408	7216	7219	1
7409	7216	7220	1
7410	7230	7231	1
7411	7230	7232	1
7412	7230	7233	1
7413	7234	7235	1
7414	7234	7236	1
7415	7234	7237	1
7416	7238	7240	2
7417	7238	7241	1
7418	7239	7242	1
7419	7239	7243	1
7420	7240	7244	1
7421	7240	7245	1
7422	7242	7244	2
7423	7242	7247	1
7424	7244	7246	1
7425	7251	7252	2
7426	7251	7254	1
7427	7251	7259	1
7428	7252	7253	1
7429	7252	7266	1
7430	7255	7256	1
7431	7255	7297	1
7432	7255	7298	1
7433	7256	7257	1
7434	7256	7261	1
7435	7257	7258	2
7436	7257	7262	1
7437	7258	7259	1
7438	7258	7263	1
7439	7259	7260	2
7440	7260	7261	1
7441	7260	7264	1
7442	7261	7265	1
7443	7266	7267	2
7444	7266	7268	1
7445	7267	7269	1
7446	7267	7274	1
7447	7268	7270	1
7448	7268	7271	1
7449	7268	7296	1
7450	7270	7272	1
7451	7270	7355	1
7452	7270	7359	1
7453	7272	7273	1
7454	7272	7274	1
7455	7272	7295	1
7456	7274	7275	2
7457	7275	7276	1
7458	7275	7277	1
7459	7277	7278	2
7460	7277	7279	1
7461	7278	7280	1
7462	7278	7294	1
7463	7280	7281	2
7464	7280	7282	1
7465	7281	7283	1
7466	7281	7284	1
7467	7282	7285	1
7468	7282	7286	1
7469	7282	7287	1
7470	7283	7285	1
7471	7283	7288	2
7472	7284	7289	3
7473	7286	7363	1
7474	7286	7364	2
7475	7287	7373	1
7476	7287	7374	1
7477	7287	7375	1
7478	7288	7290	1
7479	7288	7291	1
7480	7290	7292	3
7481	7291	7293	3
7482	7297	7300	1
7483	7297	7352	1
7484	7297	7353	1
7485	7298	7299	1
7486	7298	7348	1
7487	7298	7351	1
7488	7299	7302	1
7489	7299	7349	1
7490	7299	7350	1
7491	7300	7301	1
7492	7300	7347	1
7493	7300	7354	1
7494	7301	7345	1
7495	7302	7346	1
7496	7303	7309	1
7497	7303	7321	1
7498	7303	7325	1
7499	7303	7346	1
7500	7304	7305	1
7501	7304	7313	1
7502	7304	7317	1
7503	7304	7345	1
7504	7305	7306	1
7505	7305	7307	1
7506	7305	7308	1
7507	7309	7310	1
7508	7309	7311	1
7509	7309	7312	1
7510	7313	7314	1
7511	7313	7315	1
7512	7313	7316	1
7513	7317	7318	1
7514	7317	7319	1
7515	7317	7320	1
7516	7321	7322	1
7517	7321	7323	1
7518	7321	7324	1
7519	7325	7326	1
7520	7325	7327	1
7521	7325	7328	1
7522	7329	7330	1
7523	7329	7331	1
7524	7329	7332	1
7525	7329	7346	1
7526	7333	7334	1
7527	7333	7335	1
7528	7333	7336	1
7529	7333	7346	1
7530	7337	7338	1
7531	7337	7339	1
7532	7337	7340	1
7533	7337	7345	1
7534	7341	7342	1
7535	7341	7343	1
7536	7341	7344	1
7537	7341	7345	1
7538	7355	7356	1
7539	7355	7357	1
7540	7355	7358	1
7541	7359	7360	1
7542	7359	7361	1
7543	7359	7362	1
7544	7363	7365	2
7545	7363	7366	1
7546	7364	7367	1
7547	7364	7368	1
7548	7365	7369	1
7549	7365	7370	1
7550	7367	7369	2
7551	7367	7372	1
7552	7369	7371	1
7553	7376	7377	2
7554	7376	7379	1
7555	7376	7384	1
7556	7377	7378	1
7557	7377	7391	1
7558	7380	7381	1
7559	7380	7435	1
7560	7380	7436	1
7561	7381	7382	1
7562	7381	7386	1
7563	7382	7383	2
7564	7382	7387	1
7565	7383	7384	1
7566	7383	7388	1
7567	7384	7385	2
7568	7385	7386	1
7569	7385	7389	1
7570	7386	7390	1
7571	7391	7392	2
7572	7391	7393	1
7573	7392	7394	1
7574	7392	7399	1
7575	7393	7395	1
7576	7393	7396	1
7577	7393	7434	1
7578	7395	7397	1
7579	7395	7493	1
7580	7395	7497	1
7581	7397	7398	1
7582	7397	7399	1
7583	7397	7433	1
7584	7399	7400	2
7585	7400	7401	1
7586	7400	7402	1
7587	7402	7403	2
7588	7402	7404	1
7589	7403	7405	1
7590	7403	7432	1
7591	7405	7406	2
7592	7405	7407	1
7593	7406	7408	1
7594	7406	7409	1
7595	7407	7410	1
7596	7407	7411	1
7597	7407	7412	1
7598	7408	7410	1
7599	7408	7413	2
7600	7409	7414	3
7601	7411	7415	1
7602	7411	7416	1
7603	7411	7417	1
7604	7412	7418	1
7605	7412	7419	2
7606	7413	7420	1
7607	7413	7421	1
7608	7418	7422	1
7609	7418	7423	2
7610	7419	7424	1
7611	7419	7425	1
7612	7420	7426	3
7613	7421	7427	3
7614	7423	7428	1
7615	7423	7429	1
7616	7424	7429	2
7617	7424	7430	1
7618	7429	7431	1
7619	7435	7438	1
7620	7435	7490	1
7621	7435	7491	1
7622	7436	7437	1
7623	7436	7486	1
7624	7436	7489	1
7625	7437	7440	1
7626	7437	7487	1
7627	7437	7488	1
7628	7438	7439	1
7629	7438	7485	1
7630	7438	7492	1
7631	7439	7483	1
7632	7440	7484	1
7633	7441	7447	1
7634	7441	7459	1
7635	7441	7463	1
7636	7441	7484	1
7637	7442	7443	1
7638	7442	7451	1
7639	7442	7455	1
7640	7442	7483	1
7641	7443	7444	1
7642	7443	7445	1
7643	7443	7446	1
7644	7447	7448	1
7645	7447	7449	1
7646	7447	7450	1
7647	7451	7452	1
7648	7451	7453	1
7649	7451	7454	1
7650	7455	7456	1
7651	7455	7457	1
7652	7455	7458	1
7653	7459	7460	1
7654	7459	7461	1
7655	7459	7462	1
7656	7463	7464	1
7657	7463	7465	1
7658	7463	7466	1
7659	7467	7468	1
7660	7467	7469	1
7661	7467	7470	1
7662	7467	7484	1
7663	7471	7472	1
7664	7471	7473	1
7665	7471	7474	1
7666	7471	7484	1
7667	7475	7476	1
7668	7475	7477	1
7669	7475	7478	1
7670	7475	7483	1
7671	7479	7480	1
7672	7479	7481	1
7673	7479	7482	1
7674	7479	7483	1
7675	7493	7494	1
7676	7493	7495	1
7677	7493	7496	1
7678	7497	7498	1
7679	7497	7499	1
7680	7497	7500	1
7681	7501	7502	2
7682	7501	7504	1
7683	7501	7509	1
7684	7502	7503	1
7685	7502	7516	1
7686	7505	7506	1
7687	7505	7547	1
7688	7505	7548	1
7689	7506	7507	1
7690	7506	7511	1
7691	7507	7508	2
7692	7507	7512	1
7693	7508	7509	1
7694	7508	7513	1
7695	7509	7510	2
7696	7510	7511	1
7697	7510	7514	1
7698	7511	7515	1
7699	7516	7517	2
7700	7516	7518	1
7701	7517	7519	1
7702	7517	7524	1
7703	7518	7520	1
7704	7518	7521	1
7705	7518	7546	1
7706	7520	7522	1
7707	7520	7605	1
7708	7520	7609	1
7709	7522	7523	1
7710	7522	7524	1
7711	7522	7545	1
7712	7524	7525	2
7713	7525	7526	1
7714	7525	7527	1
7715	7527	7528	2
7716	7527	7529	1
7717	7528	7530	1
7718	7528	7544	1
7719	7530	7531	2
7720	7530	7532	1
7721	7531	7533	1
7722	7531	7534	1
7723	7532	7535	1
7724	7532	7536	1
7725	7532	7537	1
7726	7533	7535	1
7727	7533	7538	2
7728	7534	7539	3
7729	7536	7613	1
7730	7536	7614	2
7731	7537	7623	1
7732	7537	7624	1
7733	7537	7625	1
7734	7538	7540	1
7735	7538	7541	1
7736	7540	7542	3
7737	7541	7543	3
7738	7547	7550	1
7739	7547	7602	1
7740	7547	7603	1
7741	7548	7549	1
7742	7548	7598	1
7743	7548	7601	1
7744	7549	7552	1
7745	7549	7599	1
7746	7549	7600	1
7747	7550	7551	1
7748	7550	7597	1
7749	7550	7604	1
7750	7551	7595	1
7751	7552	7596	1
7752	7553	7559	1
7753	7553	7571	1
7754	7553	7575	1
7755	7553	7596	1
7756	7554	7555	1
7757	7554	7563	1
7758	7554	7567	1
7759	7554	7595	1
7760	7555	7556	1
7761	7555	7557	1
7762	7555	7558	1
7763	7559	7560	1
7764	7559	7561	1
7765	7559	7562	1
7766	7563	7564	1
7767	7563	7565	1
7768	7563	7566	1
7769	7567	7568	1
7770	7567	7569	1
7771	7567	7570	1
7772	7571	7572	1
7773	7571	7573	1
7774	7571	7574	1
7775	7575	7576	1
7776	7575	7577	1
7777	7575	7578	1
7778	7579	7580	1
7779	7579	7581	1
7780	7579	7582	1
7781	7579	7596	1
7782	7583	7584	1
7783	7583	7585	1
7784	7583	7586	1
7785	7583	7596	1
7786	7587	7588	1
7787	7587	7589	1
7788	7587	7590	1
7789	7587	7595	1
7790	7591	7592	1
7791	7591	7593	1
7792	7591	7594	1
7793	7591	7595	1
7794	7605	7606	1
7795	7605	7607	1
7796	7605	7608	1
7797	7609	7610	1
7798	7609	7611	1
7799	7609	7612	1
7800	7613	7615	2
7801	7613	7616	1
7802	7614	7617	1
7803	7614	7618	1
7804	7615	7619	1
7805	7615	7620	1
7806	7617	7619	2
7807	7617	7622	1
7808	7619	7621	1
7809	7626	7627	2
7810	7626	7629	1
7811	7626	7634	1
7812	7627	7628	1
7813	7627	7641	1
7814	7630	7631	1
7815	7630	7685	1
7816	7630	7686	1
7817	7631	7632	1
7818	7631	7636	1
7819	7632	7633	2
7820	7632	7637	1
7821	7633	7634	1
7822	7633	7638	1
7823	7634	7635	2
7824	7635	7636	1
7825	7635	7639	1
7826	7636	7640	1
7827	7641	7642	2
7828	7641	7643	1
7829	7642	7644	1
7830	7642	7649	1
7831	7643	7645	1
7832	7643	7646	1
7833	7643	7684	1
7834	7645	7647	1
7835	7645	7743	1
7836	7645	7747	1
7837	7647	7648	1
7838	7647	7649	1
7839	7647	7683	1
7840	7649	7650	2
7841	7650	7651	1
7842	7650	7652	1
7843	7652	7653	2
7844	7652	7654	1
7845	7653	7655	1
7846	7653	7682	1
7847	7655	7656	2
7848	7655	7657	1
7849	7656	7658	1
7850	7656	7659	1
7851	7657	7660	1
7852	7657	7661	1
7853	7657	7662	1
7854	7658	7660	1
7855	7658	7663	2
7856	7659	7664	3
7857	7661	7665	1
7858	7661	7666	1
7859	7661	7667	1
7860	7662	7668	1
7861	7662	7669	2
7862	7663	7670	1
7863	7663	7671	1
7864	7668	7672	1
7865	7668	7673	2
7866	7669	7674	1
7867	7669	7675	1
7868	7670	7676	3
7869	7671	7677	3
7870	7673	7678	1
7871	7673	7679	1
7872	7674	7679	2
7873	7674	7680	1
7874	7679	7681	1
7875	7685	7688	1
7876	7685	7740	1
7877	7685	7741	1
7878	7686	7687	1
7879	7686	7736	1
7880	7686	7739	1
7881	7687	7690	1
7882	7687	7737	1
7883	7687	7738	1
7884	7688	7689	1
7885	7688	7735	1
7886	7688	7742	1
7887	7689	7733	1
7888	7690	7734	1
7889	7691	7697	1
7890	7691	7709	1
7891	7691	7713	1
7892	7691	7734	1
7893	7692	7693	1
7894	7692	7701	1
7895	7692	7705	1
7896	7692	7733	1
7897	7693	7694	1
7898	7693	7695	1
7899	7693	7696	1
7900	7697	7698	1
7901	7697	7699	1
7902	7697	7700	1
7903	7701	7702	1
7904	7701	7703	1
7905	7701	7704	1
7906	7705	7706	1
7907	7705	7707	1
7908	7705	7708	1
7909	7709	7710	1
7910	7709	7711	1
7911	7709	7712	1
7912	7713	7714	1
7913	7713	7715	1
7914	7713	7716	1
7915	7717	7718	1
7916	7717	7719	1
7917	7717	7720	1
7918	7717	7734	1
7919	7721	7722	1
7920	7721	7723	1
7921	7721	7724	1
7922	7721	7734	1
7923	7725	7726	1
7924	7725	7727	1
7925	7725	7728	1
7926	7725	7733	1
7927	7729	7730	1
7928	7729	7731	1
7929	7729	7732	1
7930	7729	7733	1
7931	7743	7744	1
7932	7743	7745	1
7933	7743	7746	1
7934	7747	7748	1
7935	7747	7749	1
7936	7747	7750	1
7937	7751	7752	2
7938	7751	7754	1
7939	7751	7759	1
7940	7752	7753	1
7941	7752	7766	1
7942	7755	7756	1
7943	7755	7797	1
7944	7755	7798	1
7945	7756	7757	1
7946	7756	7761	1
7947	7757	7758	2
7948	7757	7762	1
7949	7758	7759	1
7950	7758	7763	1
7951	7759	7760	2
7952	7760	7761	1
7953	7760	7764	1
7954	7761	7765	1
7955	7766	7767	2
7956	7766	7768	1
7957	7767	7769	1
7958	7767	7774	1
7959	7768	7770	1
7960	7768	7771	1
7961	7768	7796	1
7962	7770	7772	1
7963	7770	7855	1
7964	7770	7859	1
7965	7772	7773	1
7966	7772	7774	1
7967	7772	7795	1
7968	7774	7775	2
7969	7775	7776	1
7970	7775	7777	1
7971	7777	7778	2
7972	7777	7779	1
7973	7778	7780	1
7974	7778	7794	1
7975	7780	7781	2
7976	7780	7782	1
7977	7781	7783	1
7978	7781	7784	1
7979	7782	7785	1
7980	7782	7786	1
7981	7782	7787	1
7982	7783	7785	1
7983	7783	7788	2
7984	7784	7789	3
7985	7786	7863	1
7986	7786	7864	2
7987	7787	7873	1
7988	7787	7874	1
7989	7787	7875	1
7990	7788	7790	1
7991	7788	7791	1
7992	7790	7792	3
7993	7791	7793	3
7994	7797	7800	1
7995	7797	7852	1
7996	7797	7853	1
7997	7798	7799	1
7998	7798	7848	1
7999	7798	7851	1
8000	7799	7802	1
8001	7799	7849	1
8002	7799	7850	1
8003	7800	7801	1
8004	7800	7847	1
8005	7800	7854	1
8006	7801	7845	1
8007	7802	7846	1
8008	7803	7809	1
8009	7803	7821	1
8010	7803	7825	1
8011	7803	7846	1
8012	7804	7805	1
8013	7804	7813	1
8014	7804	7817	1
8015	7804	7845	1
8016	7805	7806	1
8017	7805	7807	1
8018	7805	7808	1
8019	7809	7810	1
8020	7809	7811	1
8021	7809	7812	1
8022	7813	7814	1
8023	7813	7815	1
8024	7813	7816	1
8025	7817	7818	1
8026	7817	7819	1
8027	7817	7820	1
8028	7821	7822	1
8029	7821	7823	1
8030	7821	7824	1
8031	7825	7826	1
8032	7825	7827	1
8033	7825	7828	1
8034	7829	7830	1
8035	7829	7831	1
8036	7829	7832	1
8037	7829	7846	1
8038	7833	7834	1
8039	7833	7835	1
8040	7833	7836	1
8041	7833	7846	1
8042	7837	7838	1
8043	7837	7839	1
8044	7837	7840	1
8045	7837	7845	1
8046	7841	7842	1
8047	7841	7843	1
8048	7841	7844	1
8049	7841	7845	1
8050	7855	7856	1
8051	7855	7857	1
8052	7855	7858	1
8053	7859	7860	1
8054	7859	7861	1
8055	7859	7862	1
8056	7863	7865	2
8057	7863	7866	1
8058	7864	7867	1
8059	7864	7868	1
8060	7865	7869	1
8061	7865	7870	1
8062	7867	7869	2
8063	7867	7872	1
8064	7869	7871	1
8065	7876	7877	2
8066	7876	7879	1
8067	7876	7884	1
8068	7877	7878	1
8069	7877	7891	1
8070	7880	7881	1
8071	7880	7922	1
8072	7880	7923	1
8073	7881	7882	1
8074	7881	7886	1
8075	7882	7883	2
8076	7882	7887	1
8077	7883	7884	1
8078	7883	7888	1
8079	7884	7885	2
8080	7885	7886	1
8081	7885	7889	1
8082	7886	7890	1
8083	7891	7892	2
8084	7891	7893	1
8085	7892	7894	1
8086	7892	7899	1
8087	7893	7895	1
8088	7893	7896	1
8089	7893	7921	1
8090	7895	7897	1
8091	7895	7980	1
8092	7895	7984	1
8093	7897	7898	1
8094	7897	7899	1
8095	7897	7920	1
8096	7899	7900	2
8097	7900	7901	1
8098	7900	7902	1
8099	7902	7903	2
8100	7902	7904	1
8101	7903	7905	1
8102	7903	7919	1
8103	7905	7906	2
8104	7905	7907	1
8105	7906	7908	1
8106	7906	7909	1
8107	7907	7910	1
8108	7907	7911	1
8109	7907	7912	1
8110	7908	7910	1
8111	7908	7913	2
8112	7909	7914	3
8113	7911	7988	1
8114	7911	7989	2
8115	7912	7998	1
8116	7912	7999	1
8117	7912	8000	1
8118	7913	7915	1
8119	7913	7916	1
8120	7915	7917	3
8121	7916	7918	3
8122	7922	7925	1
8123	7922	7977	1
8124	7922	7978	1
8125	7923	7924	1
8126	7923	7973	1
8127	7923	7976	1
8128	7924	7927	1
8129	7924	7974	1
8130	7924	7975	1
8131	7925	7926	1
8132	7925	7972	1
8133	7925	7979	1
8134	7926	7970	1
8135	7927	7971	1
8136	7928	7934	1
8137	7928	7946	1
8138	7928	7950	1
8139	7928	7971	1
8140	7929	7930	1
8141	7929	7938	1
8142	7929	7942	1
8143	7929	7970	1
8144	7930	7931	1
8145	7930	7932	1
8146	7930	7933	1
8147	7934	7935	1
8148	7934	7936	1
8149	7934	7937	1
8150	7938	7939	1
8151	7938	7940	1
8152	7938	7941	1
8153	7942	7943	1
8154	7942	7944	1
8155	7942	7945	1
8156	7946	7947	1
8157	7946	7948	1
8158	7946	7949	1
8159	7950	7951	1
8160	7950	7952	1
8161	7950	7953	1
8162	7954	7955	1
8163	7954	7956	1
8164	7954	7957	1
8165	7954	7971	1
8166	7958	7959	1
8167	7958	7960	1
8168	7958	7961	1
8169	7958	7971	1
8170	7962	7963	1
8171	7962	7964	1
8172	7962	7965	1
8173	7962	7970	1
8174	7966	7967	1
8175	7966	7968	1
8176	7966	7969	1
8177	7966	7970	1
8178	7980	7981	1
8179	7980	7982	1
8180	7980	7983	1
8181	7984	7985	1
8182	7984	7986	1
8183	7984	7987	1
8184	7988	7990	2
8185	7988	7991	1
8186	7989	7992	1
8187	7989	7993	1
8188	7990	7994	1
8189	7990	7995	1
8190	7992	7994	2
8191	7992	7997	1
8192	7994	7996	1
8193	8001	8002	2
8194	8001	8004	1
8195	8001	8009	1
8196	8002	8003	1
8197	8002	8016	1
8198	8005	8006	1
8199	8005	8047	1
8200	8005	8048	1
8201	8006	8007	1
8202	8006	8011	1
8203	8007	8008	2
8204	8007	8012	1
8205	8008	8009	1
8206	8008	8013	1
8207	8009	8010	2
8208	8010	8011	1
8209	8010	8014	1
8210	8011	8015	1
8211	8016	8017	2
8212	8016	8018	1
8213	8017	8019	1
8214	8017	8024	1
8215	8018	8020	1
8216	8018	8021	1
8217	8018	8046	1
8218	8020	8022	1
8219	8020	8105	1
8220	8020	8109	1
8221	8022	8023	1
8222	8022	8024	1
8223	8022	8045	1
8224	8024	8025	2
8225	8025	8026	1
8226	8025	8027	1
8227	8027	8028	2
8228	8027	8029	1
8229	8028	8030	1
8230	8028	8044	1
8231	8030	8031	2
8232	8030	8032	1
8233	8031	8033	1
8234	8031	8034	1
8235	8032	8035	1
8236	8032	8036	1
8237	8032	8037	1
8238	8033	8035	1
8239	8033	8038	2
8240	8034	8039	3
8241	8036	8113	1
8242	8036	8114	2
8243	8037	8123	1
8244	8037	8124	1
8245	8037	8125	1
8246	8038	8040	1
8247	8038	8041	1
8248	8040	8042	3
8249	8041	8043	3
8250	8047	8050	1
8251	8047	8102	1
8252	8047	8103	1
8253	8048	8049	1
8254	8048	8098	1
8255	8048	8101	1
8256	8049	8052	1
8257	8049	8099	1
8258	8049	8100	1
8259	8050	8051	1
8260	8050	8097	1
8261	8050	8104	1
8262	8051	8095	1
8263	8052	8096	1
8264	8053	8059	1
8265	8053	8071	1
8266	8053	8075	1
8267	8053	8096	1
8268	8054	8055	1
8269	8054	8063	1
8270	8054	8067	1
8271	8054	8095	1
8272	8055	8056	1
8273	8055	8057	1
8274	8055	8058	1
8275	8059	8060	1
8276	8059	8061	1
8277	8059	8062	1
8278	8063	8064	1
8279	8063	8065	1
8280	8063	8066	1
8281	8067	8068	1
8282	8067	8069	1
8283	8067	8070	1
8284	8071	8072	1
8285	8071	8073	1
8286	8071	8074	1
8287	8075	8076	1
8288	8075	8077	1
8289	8075	8078	1
8290	8079	8080	1
8291	8079	8081	1
8292	8079	8082	1
8293	8079	8096	1
8294	8083	8084	1
8295	8083	8085	1
8296	8083	8086	1
8297	8083	8096	1
8298	8087	8088	1
8299	8087	8089	1
8300	8087	8090	1
8301	8087	8095	1
8302	8091	8092	1
8303	8091	8093	1
8304	8091	8094	1
8305	8091	8095	1
8306	8105	8106	1
8307	8105	8107	1
8308	8105	8108	1
8309	8109	8110	1
8310	8109	8111	1
8311	8109	8112	1
8312	8113	8115	2
8313	8113	8116	1
8314	8114	8117	1
8315	8114	8118	1
8316	8115	8119	1
8317	8115	8120	1
8318	8117	8119	2
8319	8117	8122	1
8320	8119	8121	1
8321	8126	8127	2
8322	8126	8129	1
8323	8126	8134	1
8324	8127	8128	1
8325	8127	8141	1
8326	8130	8131	1
8327	8130	8185	1
8328	8130	8186	1
8329	8131	8132	1
8330	8131	8136	1
8331	8132	8133	2
8332	8132	8137	1
8333	8133	8134	1
8334	8133	8138	1
8335	8134	8135	2
8336	8135	8136	1
8337	8135	8139	1
8338	8136	8140	1
8339	8141	8142	2
8340	8141	8143	1
8341	8142	8144	1
8342	8142	8149	1
8343	8143	8145	1
8344	8143	8146	1
8345	8143	8184	1
8346	8145	8147	1
8347	8145	8243	1
8348	8145	8247	1
8349	8147	8148	1
8350	8147	8149	1
8351	8147	8183	1
8352	8149	8150	2
8353	8150	8151	1
8354	8150	8152	1
8355	8152	8153	2
8356	8152	8154	1
8357	8153	8155	1
8358	8153	8182	1
8359	8155	8156	2
8360	8155	8157	1
8361	8156	8158	1
8362	8156	8159	1
8363	8157	8160	1
8364	8157	8161	1
8365	8157	8162	1
8366	8158	8160	1
8367	8158	8163	2
8368	8159	8164	3
8369	8161	8165	1
8370	8161	8166	1
8371	8161	8167	1
8372	8162	8168	1
8373	8162	8169	2
8374	8163	8170	1
8375	8163	8171	1
8376	8168	8172	1
8377	8168	8173	2
8378	8169	8174	1
8379	8169	8175	1
8380	8170	8176	3
8381	8171	8177	3
8382	8173	8178	1
8383	8173	8179	1
8384	8174	8179	2
8385	8174	8180	1
8386	8179	8181	1
8387	8185	8188	1
8388	8185	8240	1
8389	8185	8241	1
8390	8186	8187	1
8391	8186	8236	1
8392	8186	8239	1
8393	8187	8190	1
8394	8187	8237	1
8395	8187	8238	1
8396	8188	8189	1
8397	8188	8235	1
8398	8188	8242	1
8399	8189	8233	1
8400	8190	8234	1
8401	8191	8197	1
8402	8191	8209	1
8403	8191	8213	1
8404	8191	8234	1
8405	8192	8193	1
8406	8192	8201	1
8407	8192	8205	1
8408	8192	8233	1
8409	8193	8194	1
8410	8193	8195	1
8411	8193	8196	1
8412	8197	8198	1
8413	8197	8199	1
8414	8197	8200	1
8415	8201	8202	1
8416	8201	8203	1
8417	8201	8204	1
8418	8205	8206	1
8419	8205	8207	1
8420	8205	8208	1
8421	8209	8210	1
8422	8209	8211	1
8423	8209	8212	1
8424	8213	8214	1
8425	8213	8215	1
8426	8213	8216	1
8427	8217	8218	1
8428	8217	8219	1
8429	8217	8220	1
8430	8217	8234	1
8431	8221	8222	1
8432	8221	8223	1
8433	8221	8224	1
8434	8221	8234	1
8435	8225	8226	1
8436	8225	8227	1
8437	8225	8228	1
8438	8225	8233	1
8439	8229	8230	1
8440	8229	8231	1
8441	8229	8232	1
8442	8229	8233	1
8443	8243	8244	1
8444	8243	8245	1
8445	8243	8246	1
8446	8247	8248	1
8447	8247	8249	1
8448	8247	8250	1
8449	8251	8252	2
8450	8251	8254	1
8451	8251	8259	1
8452	8252	8253	1
8453	8252	8266	1
8454	8255	8256	1
8455	8255	8297	1
8456	8255	8298	1
8457	8256	8257	1
8458	8256	8261	1
8459	8257	8258	2
8460	8257	8262	1
8461	8258	8259	1
8462	8258	8263	1
8463	8259	8260	2
8464	8260	8261	1
8465	8260	8264	1
8466	8261	8265	1
8467	8266	8267	2
8468	8266	8268	1
8469	8267	8269	1
8470	8267	8274	1
8471	8268	8270	1
8472	8268	8271	1
8473	8268	8296	1
8474	8270	8272	1
8475	8270	8355	1
8476	8270	8359	1
8477	8272	8273	1
8478	8272	8274	1
8479	8272	8295	1
8480	8274	8275	2
8481	8275	8276	1
8482	8275	8277	1
8483	8277	8278	2
8484	8277	8279	1
8485	8278	8280	1
8486	8278	8294	1
8487	8280	8281	2
8488	8280	8282	1
8489	8281	8283	1
8490	8281	8284	1
8491	8282	8285	1
8492	8282	8286	1
8493	8282	8287	1
8494	8283	8285	1
8495	8283	8288	2
8496	8284	8289	3
8497	8286	8363	1
8498	8286	8364	2
8499	8287	8373	1
8500	8287	8374	1
8501	8287	8375	1
8502	8288	8290	1
8503	8288	8291	1
8504	8290	8292	3
8505	8291	8293	3
8506	8297	8300	1
8507	8297	8352	1
8508	8297	8353	1
8509	8298	8299	1
8510	8298	8348	1
8511	8298	8351	1
8512	8299	8302	1
8513	8299	8349	1
8514	8299	8350	1
8515	8300	8301	1
8516	8300	8347	1
8517	8300	8354	1
8518	8301	8345	1
8519	8302	8346	1
8520	8303	8309	1
8521	8303	8321	1
8522	8303	8325	1
8523	8303	8346	1
8524	8304	8305	1
8525	8304	8313	1
8526	8304	8317	1
8527	8304	8345	1
8528	8305	8306	1
8529	8305	8307	1
8530	8305	8308	1
8531	8309	8310	1
8532	8309	8311	1
8533	8309	8312	1
8534	8313	8314	1
8535	8313	8315	1
8536	8313	8316	1
8537	8317	8318	1
8538	8317	8319	1
8539	8317	8320	1
8540	8321	8322	1
8541	8321	8323	1
8542	8321	8324	1
8543	8325	8326	1
8544	8325	8327	1
8545	8325	8328	1
8546	8329	8330	1
8547	8329	8331	1
8548	8329	8332	1
8549	8329	8346	1
8550	8333	8334	1
8551	8333	8335	1
8552	8333	8336	1
8553	8333	8346	1
8554	8337	8338	1
8555	8337	8339	1
8556	8337	8340	1
8557	8337	8345	1
8558	8341	8342	1
8559	8341	8343	1
8560	8341	8344	1
8561	8341	8345	1
8562	8355	8356	1
8563	8355	8357	1
8564	8355	8358	1
8565	8359	8360	1
8566	8359	8361	1
8567	8359	8362	1
8568	8363	8365	2
8569	8363	8366	1
8570	8364	8367	1
8571	8364	8368	1
8572	8365	8369	1
8573	8365	8370	1
8574	8367	8369	2
8575	8367	8372	1
8576	8369	8371	1
8577	8376	8377	2
8578	8376	8379	1
8579	8376	8384	1
8580	8377	8378	1
8581	8377	8391	1
8582	8380	8381	1
8583	8380	8422	1
8584	8380	8423	1
8585	8381	8382	1
8586	8381	8386	1
8587	8382	8383	2
8588	8382	8387	1
8589	8383	8384	1
8590	8383	8388	1
8591	8384	8385	2
8592	8385	8386	1
8593	8385	8389	1
8594	8386	8390	1
8595	8391	8392	2
8596	8391	8393	1
8597	8392	8394	1
8598	8392	8399	1
8599	8393	8395	1
8600	8393	8396	1
8601	8393	8421	1
8602	8395	8397	1
8603	8395	8480	1
8604	8395	8484	1
8605	8397	8398	1
8606	8397	8399	1
8607	8397	8420	1
8608	8399	8400	2
8609	8400	8401	1
8610	8400	8402	1
8611	8402	8403	2
8612	8402	8404	1
8613	8403	8405	1
8614	8403	8419	1
8615	8405	8406	2
8616	8405	8407	1
8617	8406	8408	1
8618	8406	8409	1
8619	8407	8410	1
8620	8407	8411	1
8621	8407	8412	1
8622	8408	8410	1
8623	8408	8413	2
8624	8409	8414	3
8625	8411	8488	1
8626	8411	8489	2
8627	8412	8498	1
8628	8412	8499	1
8629	8412	8500	1
8630	8413	8415	1
8631	8413	8416	1
8632	8415	8417	3
8633	8416	8418	3
8634	8422	8425	1
8635	8422	8477	1
8636	8422	8478	1
8637	8423	8424	1
8638	8423	8473	1
8639	8423	8476	1
8640	8424	8427	1
8641	8424	8474	1
8642	8424	8475	1
8643	8425	8426	1
8644	8425	8472	1
8645	8425	8479	1
8646	8426	8470	1
8647	8427	8471	1
8648	8428	8434	1
8649	8428	8446	1
8650	8428	8450	1
8651	8428	8471	1
8652	8429	8430	1
8653	8429	8438	1
8654	8429	8442	1
8655	8429	8470	1
8656	8430	8431	1
8657	8430	8432	1
8658	8430	8433	1
8659	8434	8435	1
8660	8434	8436	1
8661	8434	8437	1
8662	8438	8439	1
8663	8438	8440	1
8664	8438	8441	1
8665	8442	8443	1
8666	8442	8444	1
8667	8442	8445	1
8668	8446	8447	1
8669	8446	8448	1
8670	8446	8449	1
8671	8450	8451	1
8672	8450	8452	1
8673	8450	8453	1
8674	8454	8455	1
8675	8454	8456	1
8676	8454	8457	1
8677	8454	8471	1
8678	8458	8459	1
8679	8458	8460	1
8680	8458	8461	1
8681	8458	8471	1
8682	8462	8463	1
8683	8462	8464	1
8684	8462	8465	1
8685	8462	8470	1
8686	8466	8467	1
8687	8466	8468	1
8688	8466	8469	1
8689	8466	8470	1
8690	8480	8481	1
8691	8480	8482	1
8692	8480	8483	1
8693	8484	8485	1
8694	8484	8486	1
8695	8484	8487	1
8696	8488	8490	2
8697	8488	8491	1
8698	8489	8492	1
8699	8489	8493	1
8700	8490	8494	1
8701	8490	8495	1
8702	8492	8494	2
8703	8492	8497	1
8704	8494	8496	1
8705	8501	8502	2
8706	8501	8504	1
8707	8501	8509	1
8708	8502	8503	1
8709	8502	8516	1
8710	8505	8506	1
8711	8505	8547	1
8712	8505	8548	1
8713	8506	8507	1
8714	8506	8511	1
8715	8507	8508	2
8716	8507	8512	1
8717	8508	8509	1
8718	8508	8513	1
8719	8509	8510	2
8720	8510	8511	1
8721	8510	8514	1
8722	8511	8515	1
8723	8516	8517	2
8724	8516	8518	1
8725	8517	8519	1
8726	8517	8524	1
8727	8518	8520	1
8728	8518	8521	1
8729	8518	8546	1
8730	8520	8522	1
8731	8520	8605	1
8732	8520	8609	1
8733	8522	8523	1
8734	8522	8524	1
8735	8522	8545	1
8736	8524	8525	2
8737	8525	8526	1
8738	8525	8527	1
8739	8527	8528	2
8740	8527	8529	1
8741	8528	8530	1
8742	8528	8544	1
8743	8530	8531	2
8744	8530	8532	1
8745	8531	8533	1
8746	8531	8534	1
8747	8532	8535	1
8748	8532	8536	1
8749	8532	8537	1
8750	8533	8535	1
8751	8533	8538	2
8752	8534	8539	3
8753	8536	8613	1
8754	8536	8614	2
8755	8537	8623	1
8756	8537	8624	1
8757	8537	8625	1
8758	8538	8540	1
8759	8538	8541	1
8760	8540	8542	3
8761	8541	8543	3
8762	8547	8550	1
8763	8547	8602	1
8764	8547	8603	1
8765	8548	8549	1
8766	8548	8598	1
8767	8548	8601	1
8768	8549	8552	1
8769	8549	8599	1
8770	8549	8600	1
8771	8550	8551	1
8772	8550	8597	1
8773	8550	8604	1
8774	8551	8595	1
8775	8552	8596	1
8776	8553	8559	1
8777	8553	8571	1
8778	8553	8575	1
8779	8553	8596	1
8780	8554	8555	1
8781	8554	8563	1
8782	8554	8567	1
8783	8554	8595	1
8784	8555	8556	1
8785	8555	8557	1
8786	8555	8558	1
8787	8559	8560	1
8788	8559	8561	1
8789	8559	8562	1
8790	8563	8564	1
8791	8563	8565	1
8792	8563	8566	1
8793	8567	8568	1
8794	8567	8569	1
8795	8567	8570	1
8796	8571	8572	1
8797	8571	8573	1
8798	8571	8574	1
8799	8575	8576	1
8800	8575	8577	1
8801	8575	8578	1
8802	8579	8580	1
8803	8579	8581	1
8804	8579	8582	1
8805	8579	8596	1
8806	8583	8584	1
8807	8583	8585	1
8808	8583	8586	1
8809	8583	8596	1
8810	8587	8588	1
8811	8587	8589	1
8812	8587	8590	1
8813	8587	8595	1
8814	8591	8592	1
8815	8591	8593	1
8816	8591	8594	1
8817	8591	8595	1
8818	8605	8606	1
8819	8605	8607	1
8820	8605	8608	1
8821	8609	8610	1
8822	8609	8611	1
8823	8609	8612	1
8824	8613	8615	2
8825	8613	8616	1
8826	8614	8617	1
8827	8614	8618	1
8828	8615	8619	1
8829	8615	8620	1
8830	8617	8619	2
8831	8617	8622	1
8832	8619	8621	1
8833	8626	8627	2
8834	8626	8629	1
8835	8626	8634	1
8836	8627	8628	1
8837	8627	8641	1
8838	8630	8631	1
8839	8630	8685	1
8840	8630	8686	1
8841	8631	8632	1
8842	8631	8636	1
8843	8632	8633	2
8844	8632	8637	1
8845	8633	8634	1
8846	8633	8638	1
8847	8634	8635	2
8848	8635	8636	1
8849	8635	8639	1
8850	8636	8640	1
8851	8641	8642	2
8852	8641	8643	1
8853	8642	8644	1
8854	8642	8649	1
8855	8643	8645	1
8856	8643	8646	1
8857	8643	8684	1
8858	8645	8647	1
8859	8645	8743	1
8860	8645	8747	1
8861	8647	8648	1
8862	8647	8649	1
8863	8647	8683	1
8864	8649	8650	2
8865	8650	8651	1
8866	8650	8652	1
8867	8652	8653	2
8868	8652	8654	1
8869	8653	8655	1
8870	8653	8682	1
8871	8655	8656	2
8872	8655	8657	1
8873	8656	8658	1
8874	8656	8659	1
8875	8657	8660	1
8876	8657	8661	1
8877	8657	8662	1
8878	8658	8660	1
8879	8658	8663	2
8880	8659	8664	3
8881	8661	8665	1
8882	8661	8666	1
8883	8661	8667	1
8884	8662	8668	1
8885	8662	8669	2
8886	8663	8670	1
8887	8663	8671	1
8888	8668	8672	1
8889	8668	8673	2
8890	8669	8674	1
8891	8669	8675	1
8892	8670	8676	3
8893	8671	8677	3
8894	8673	8678	1
8895	8673	8679	1
8896	8674	8679	2
8897	8674	8680	1
8898	8679	8681	1
8899	8685	8688	1
8900	8685	8740	1
8901	8685	8741	1
8902	8686	8687	1
8903	8686	8736	1
8904	8686	8739	1
8905	8687	8690	1
8906	8687	8737	1
8907	8687	8738	1
8908	8688	8689	1
8909	8688	8735	1
8910	8688	8742	1
8911	8689	8733	1
8912	8690	8734	1
8913	8691	8697	1
8914	8691	8709	1
8915	8691	8713	1
8916	8691	8734	1
8917	8692	8693	1
8918	8692	8701	1
8919	8692	8705	1
8920	8692	8733	1
8921	8693	8694	1
8922	8693	8695	1
8923	8693	8696	1
8924	8697	8698	1
8925	8697	8699	1
8926	8697	8700	1
8927	8701	8702	1
8928	8701	8703	1
8929	8701	8704	1
8930	8705	8706	1
8931	8705	8707	1
8932	8705	8708	1
8933	8709	8710	1
8934	8709	8711	1
8935	8709	8712	1
8936	8713	8714	1
8937	8713	8715	1
8938	8713	8716	1
8939	8717	8718	1
8940	8717	8719	1
8941	8717	8720	1
8942	8717	8734	1
8943	8721	8722	1
8944	8721	8723	1
8945	8721	8724	1
8946	8721	8734	1
8947	8725	8726	1
8948	8725	8727	1
8949	8725	8728	1
8950	8725	8733	1
8951	8729	8730	1
8952	8729	8731	1
8953	8729	8732	1
8954	8729	8733	1
8955	8743	8744	1
8956	8743	8745	1
8957	8743	8746	1
8958	8747	8748	1
8959	8747	8749	1
8960	8747	8750	1
8961	8751	8752	2
8962	8751	8754	1
8963	8751	8759	1
8964	8752	8753	1
8965	8752	8766	1
8966	8755	8756	1
8967	8755	8797	1
8968	8755	8798	1
8969	8756	8757	1
8970	8756	8761	1
8971	8757	8758	2
8972	8757	8762	1
8973	8758	8759	1
8974	8758	8763	1
8975	8759	8760	2
8976	8760	8761	1
8977	8760	8764	1
8978	8761	8765	1
8979	8766	8767	2
8980	8766	8768	1
8981	8767	8769	1
8982	8767	8774	1
8983	8768	8770	1
8984	8768	8771	1
8985	8768	8796	1
8986	8770	8772	1
8987	8770	8855	1
8988	8770	8859	1
8989	8772	8773	1
8990	8772	8774	1
8991	8772	8795	1
8992	8774	8775	2
8993	8775	8776	1
8994	8775	8777	1
8995	8777	8778	2
8996	8777	8779	1
8997	8778	8780	1
8998	8778	8794	1
8999	8780	8781	2
9000	8780	8782	1
9001	8781	8783	1
9002	8781	8784	1
9003	8782	8785	1
9004	8782	8786	1
9005	8782	8787	1
9006	8783	8785	1
9007	8783	8788	2
9008	8784	8789	3
9009	8786	8863	1
9010	8786	8864	2
9011	8787	8873	1
9012	8787	8874	1
9013	8787	8875	1
9014	8788	8790	1
9015	8788	8791	1
9016	8790	8792	3
9017	8791	8793	3
9018	8797	8800	1
9019	8797	8852	1
9020	8797	8853	1
9021	8798	8799	1
9022	8798	8848	1
9023	8798	8851	1
9024	8799	8802	1
9025	8799	8849	1
9026	8799	8850	1
9027	8800	8801	1
9028	8800	8847	1
9029	8800	8854	1
9030	8801	8845	1
9031	8802	8846	1
9032	8803	8809	1
9033	8803	8821	1
9034	8803	8825	1
9035	8803	8846	1
9036	8804	8805	1
9037	8804	8813	1
9038	8804	8817	1
9039	8804	8845	1
9040	8805	8806	1
9041	8805	8807	1
9042	8805	8808	1
9043	8809	8810	1
9044	8809	8811	1
9045	8809	8812	1
9046	8813	8814	1
9047	8813	8815	1
9048	8813	8816	1
9049	8817	8818	1
9050	8817	8819	1
9051	8817	8820	1
9052	8821	8822	1
9053	8821	8823	1
9054	8821	8824	1
9055	8825	8826	1
9056	8825	8827	1
9057	8825	8828	1
9058	8829	8830	1
9059	8829	8831	1
9060	8829	8832	1
9061	8829	8846	1
9062	8833	8834	1
9063	8833	8835	1
9064	8833	8836	1
9065	8833	8846	1
9066	8837	8838	1
9067	8837	8839	1
9068	8837	8840	1
9069	8837	8845	1
9070	8841	8842	1
9071	8841	8843	1
9072	8841	8844	1
9073	8841	8845	1
9074	8855	8856	1
9075	8855	8857	1
9076	8855	8858	1
9077	8859	8860	1
9078	8859	8861	1
9079	8859	8862	1
9080	8863	8865	2
9081	8863	8866	1
9082	8864	8867	1
9083	8864	8868	1
9084	8865	8869	1
9085	8865	8870	1
9086	8867	8869	2
9087	8867	8872	1
9088	8869	8871	1
9089	8876	8877	2
9090	8876	8879	1
9091	8876	8884	1
9092	8877	8878	1
9093	8877	8891	1
9094	8880	8881	1
9095	8880	8935	1
9096	8880	8936	1
9097	8881	8882	1
9098	8881	8886	1
9099	8882	8883	2
9100	8882	8887	1
9101	8883	8884	1
9102	8883	8888	1
9103	8884	8885	2
9104	8885	8886	1
9105	8885	8889	1
9106	8886	8890	1
9107	8891	8892	2
9108	8891	8893	1
9109	8892	8894	1
9110	8892	8899	1
9111	8893	8895	1
9112	8893	8896	1
9113	8893	8934	1
9114	8895	8897	1
9115	8895	8993	1
9116	8895	8997	1
9117	8897	8898	1
9118	8897	8899	1
9119	8897	8933	1
9120	8899	8900	2
9121	8900	8901	1
9122	8900	8902	1
9123	8902	8903	2
9124	8902	8904	1
9125	8903	8905	1
9126	8903	8932	1
9127	8905	8906	2
9128	8905	8907	1
9129	8906	8908	1
9130	8906	8909	1
9131	8907	8910	1
9132	8907	8911	1
9133	8907	8912	1
9134	8908	8910	1
9135	8908	8913	2
9136	8909	8914	3
9137	8911	8915	1
9138	8911	8916	1
9139	8911	8917	1
9140	8912	8918	1
9141	8912	8919	2
9142	8913	8920	1
9143	8913	8921	1
9144	8918	8922	1
9145	8918	8923	2
9146	8919	8924	1
9147	8919	8925	1
9148	8920	8926	3
9149	8921	8927	3
9150	8923	8928	1
9151	8923	8929	1
9152	8924	8929	2
9153	8924	8930	1
9154	8929	8931	1
9155	8935	8938	1
9156	8935	8990	1
9157	8935	8991	1
9158	8936	8937	1
9159	8936	8986	1
9160	8936	8989	1
9161	8937	8940	1
9162	8937	8987	1
9163	8937	8988	1
9164	8938	8939	1
9165	8938	8985	1
9166	8938	8992	1
9167	8939	8983	1
9168	8940	8984	1
9169	8941	8947	1
9170	8941	8959	1
9171	8941	8963	1
9172	8941	8984	1
9173	8942	8943	1
9174	8942	8951	1
9175	8942	8955	1
9176	8942	8983	1
9177	8943	8944	1
9178	8943	8945	1
9179	8943	8946	1
9180	8947	8948	1
9181	8947	8949	1
9182	8947	8950	1
9183	8951	8952	1
9184	8951	8953	1
9185	8951	8954	1
9186	8955	8956	1
9187	8955	8957	1
9188	8955	8958	1
9189	8959	8960	1
9190	8959	8961	1
9191	8959	8962	1
9192	8963	8964	1
9193	8963	8965	1
9194	8963	8966	1
9195	8967	8968	1
9196	8967	8969	1
9197	8967	8970	1
9198	8967	8984	1
9199	8971	8972	1
9200	8971	8973	1
9201	8971	8974	1
9202	8971	8984	1
9203	8975	8976	1
9204	8975	8977	1
9205	8975	8978	1
9206	8975	8983	1
9207	8979	8980	1
9208	8979	8981	1
9209	8979	8982	1
9210	8979	8983	1
9211	8993	8994	1
9212	8993	8995	1
9213	8993	8996	1
9214	8997	8998	1
9215	8997	8999	1
9216	8997	9000	1
9217	9001	9002	2
9218	9001	9004	1
9219	9001	9009	1
9220	9002	9003	1
9221	9002	9016	1
9222	9005	9006	1
9223	9005	9047	1
9224	9005	9048	1
9225	9006	9007	1
9226	9006	9011	1
9227	9007	9008	2
9228	9007	9012	1
9229	9008	9009	1
9230	9008	9013	1
9231	9009	9010	2
9232	9010	9011	1
9233	9010	9014	1
9234	9011	9015	1
9235	9016	9017	2
9236	9016	9018	1
9237	9017	9019	1
9238	9017	9024	1
9239	9018	9020	1
9240	9018	9021	1
9241	9018	9046	1
9242	9020	9022	1
9243	9020	9105	1
9244	9020	9109	1
9245	9022	9023	1
9246	9022	9024	1
9247	9022	9045	1
9248	9024	9025	2
9249	9025	9026	1
9250	9025	9027	1
9251	9027	9028	2
9252	9027	9029	1
9253	9028	9030	1
9254	9028	9044	1
9255	9030	9031	2
9256	9030	9032	1
9257	9031	9033	1
9258	9031	9034	1
9259	9032	9035	1
9260	9032	9036	1
9261	9032	9037	1
9262	9033	9035	1
9263	9033	9038	2
9264	9034	9039	3
9265	9036	9113	1
9266	9036	9114	2
9267	9037	9123	1
9268	9037	9124	1
9269	9037	9125	1
9270	9038	9040	1
9271	9038	9041	1
9272	9040	9042	3
9273	9041	9043	3
9274	9047	9050	1
9275	9047	9102	1
9276	9047	9103	1
9277	9048	9049	1
9278	9048	9098	1
9279	9048	9101	1
9280	9049	9052	1
9281	9049	9099	1
9282	9049	9100	1
9283	9050	9051	1
9284	9050	9097	1
9285	9050	9104	1
9286	9051	9095	1
9287	9052	9096	1
9288	9053	9059	1
9289	9053	9071	1
9290	9053	9075	1
9291	9053	9096	1
9292	9054	9055	1
9293	9054	9063	1
9294	9054	9067	1
9295	9054	9095	1
9296	9055	9056	1
9297	9055	9057	1
9298	9055	9058	1
9299	9059	9060	1
9300	9059	9061	1
9301	9059	9062	1
9302	9063	9064	1
9303	9063	9065	1
9304	9063	9066	1
9305	9067	9068	1
9306	9067	9069	1
9307	9067	9070	1
9308	9071	9072	1
9309	9071	9073	1
9310	9071	9074	1
9311	9075	9076	1
9312	9075	9077	1
9313	9075	9078	1
9314	9079	9080	1
9315	9079	9081	1
9316	9079	9082	1
9317	9079	9096	1
9318	9083	9084	1
9319	9083	9085	1
9320	9083	9086	1
9321	9083	9096	1
9322	9087	9088	1
9323	9087	9089	1
9324	9087	9090	1
9325	9087	9095	1
9326	9091	9092	1
9327	9091	9093	1
9328	9091	9094	1
9329	9091	9095	1
9330	9105	9106	1
9331	9105	9107	1
9332	9105	9108	1
9333	9109	9110	1
9334	9109	9111	1
9335	9109	9112	1
9336	9113	9115	2
9337	9113	9116	1
9338	9114	9117	1
9339	9114	9118	1
9340	9115	9119	1
9341	9115	9120	1
9342	9117	9119	2
9343	9117	9122	1
9344	9119	9121	1
9345	9126	9127	2
9346	9126	9129	1
9347	9126	9134	1
9348	9127	9128	1
9349	9127	9141	1
9350	9130	9131	1
9351	9130	9172	1
9352	9130	9173	1
9353	9131	9132	1
9354	9131	9136	1
9355	9132	9133	2
9356	9132	9137	1
9357	9133	9134	1
9358	9133	9138	1
9359	9134	9135	2
9360	9135	9136	1
9361	9135	9139	1
9362	9136	9140	1
9363	9141	9142	2
9364	9141	9143	1
9365	9142	9144	1
9366	9142	9149	1
9367	9143	9145	1
9368	9143	9146	1
9369	9143	9171	1
9370	9145	9147	1
9371	9145	9230	1
9372	9145	9234	1
9373	9147	9148	1
9374	9147	9149	1
9375	9147	9170	1
9376	9149	9150	2
9377	9150	9151	1
9378	9150	9152	1
9379	9152	9153	2
9380	9152	9154	1
9381	9153	9155	1
9382	9153	9169	1
9383	9155	9156	2
9384	9155	9157	1
9385	9156	9158	1
9386	9156	9159	1
9387	9157	9160	1
9388	9157	9161	1
9389	9157	9162	1
9390	9158	9160	1
9391	9158	9163	2
9392	9159	9164	3
9393	9161	9238	1
9394	9161	9239	2
9395	9162	9248	1
9396	9162	9249	1
9397	9162	9250	1
9398	9163	9165	1
9399	9163	9166	1
9400	9165	9167	3
9401	9166	9168	3
9402	9172	9175	1
9403	9172	9227	1
9404	9172	9228	1
9405	9173	9174	1
9406	9173	9223	1
9407	9173	9226	1
9408	9174	9177	1
9409	9174	9224	1
9410	9174	9225	1
9411	9175	9176	1
9412	9175	9222	1
9413	9175	9229	1
9414	9176	9220	1
9415	9177	9221	1
9416	9178	9184	1
9417	9178	9196	1
9418	9178	9200	1
9419	9178	9221	1
9420	9179	9180	1
9421	9179	9188	1
9422	9179	9192	1
9423	9179	9220	1
9424	9180	9181	1
9425	9180	9182	1
9426	9180	9183	1
9427	9184	9185	1
9428	9184	9186	1
9429	9184	9187	1
9430	9188	9189	1
9431	9188	9190	1
9432	9188	9191	1
9433	9192	9193	1
9434	9192	9194	1
9435	9192	9195	1
9436	9196	9197	1
9437	9196	9198	1
9438	9196	9199	1
9439	9200	9201	1
9440	9200	9202	1
9441	9200	9203	1
9442	9204	9205	1
9443	9204	9206	1
9444	9204	9207	1
9445	9204	9221	1
9446	9208	9209	1
9447	9208	9210	1
9448	9208	9211	1
9449	9208	9221	1
9450	9212	9213	1
9451	9212	9214	1
9452	9212	9215	1
9453	9212	9220	1
9454	9216	9217	1
9455	9216	9218	1
9456	9216	9219	1
9457	9216	9220	1
9458	9230	9231	1
9459	9230	9232	1
9460	9230	9233	1
9461	9234	9235	1
9462	9234	9236	1
9463	9234	9237	1
9464	9238	9240	2
9465	9238	9241	1
9466	9239	9242	1
9467	9239	9243	1
9468	9240	9244	1
9469	9240	9245	1
9470	9242	9244	2
9471	9242	9247	1
9472	9244	9246	1
9473	9251	9252	2
9474	9251	9254	1
9475	9251	9259	1
9476	9252	9253	1
9477	9252	9266	1
9478	9255	9256	1
9479	9255	9310	1
9480	9255	9311	1
9481	9256	9257	1
9482	9256	9261	1
9483	9257	9258	2
9484	9257	9262	1
9485	9258	9259	1
9486	9258	9263	1
9487	9259	9260	2
9488	9260	9261	1
9489	9260	9264	1
9490	9261	9265	1
9491	9266	9267	2
9492	9266	9268	1
9493	9267	9269	1
9494	9267	9274	1
9495	9268	9270	1
9496	9268	9271	1
9497	9268	9309	1
9498	9270	9272	1
9499	9270	9368	1
9500	9270	9372	1
9501	9272	9273	1
9502	9272	9274	1
9503	9272	9308	1
9504	9274	9275	2
9505	9275	9276	1
9506	9275	9277	1
9507	9277	9278	2
9508	9277	9279	1
9509	9278	9280	1
9510	9278	9307	1
9511	9280	9281	2
9512	9280	9282	1
9513	9281	9283	1
9514	9281	9284	1
9515	9282	9285	1
9516	9282	9286	1
9517	9282	9287	1
9518	9283	9285	1
9519	9283	9288	2
9520	9284	9289	3
9521	9286	9290	1
9522	9286	9291	1
9523	9286	9292	1
9524	9287	9293	1
9525	9287	9294	2
9526	9288	9295	1
9527	9288	9296	1
9528	9293	9297	1
9529	9293	9298	2
9530	9294	9299	1
9531	9294	9300	1
9532	9295	9301	3
9533	9296	9302	3
9534	9298	9303	1
9535	9298	9304	1
9536	9299	9304	2
9537	9299	9305	1
9538	9304	9306	1
9539	9310	9313	1
9540	9310	9365	1
9541	9310	9366	1
9542	9311	9312	1
9543	9311	9361	1
9544	9311	9364	1
9545	9312	9315	1
9546	9312	9362	1
9547	9312	9363	1
9548	9313	9314	1
9549	9313	9360	1
9550	9313	9367	1
9551	9314	9358	1
9552	9315	9359	1
9553	9316	9322	1
9554	9316	9334	1
9555	9316	9338	1
9556	9316	9359	1
9557	9317	9318	1
9558	9317	9326	1
9559	9317	9330	1
9560	9317	9358	1
9561	9318	9319	1
9562	9318	9320	1
9563	9318	9321	1
9564	9322	9323	1
9565	9322	9324	1
9566	9322	9325	1
9567	9326	9327	1
9568	9326	9328	1
9569	9326	9329	1
9570	9330	9331	1
9571	9330	9332	1
9572	9330	9333	1
9573	9334	9335	1
9574	9334	9336	1
9575	9334	9337	1
9576	9338	9339	1
9577	9338	9340	1
9578	9338	9341	1
9579	9342	9343	1
9580	9342	9344	1
9581	9342	9345	1
9582	9342	9359	1
9583	9346	9347	1
9584	9346	9348	1
9585	9346	9349	1
9586	9346	9359	1
9587	9350	9351	1
9588	9350	9352	1
9589	9350	9353	1
9590	9350	9358	1
9591	9354	9355	1
9592	9354	9356	1
9593	9354	9357	1
9594	9354	9358	1
9595	9368	9369	1
9596	9368	9370	1
9597	9368	9371	1
9598	9372	9373	1
9599	9372	9374	1
9600	9372	9375	1
9601	9376	9377	2
9602	9376	9379	1
9603	9376	9384	1
9604	9377	9378	1
9605	9377	9391	1
9606	9380	9381	1
9607	9380	9435	1
9608	9380	9436	1
9609	9381	9382	1
9610	9381	9386	1
9611	9382	9383	2
9612	9382	9387	1
9613	9383	9384	1
9614	9383	9388	1
9615	9384	9385	2
9616	9385	9386	1
9617	9385	9389	1
9618	9386	9390	1
9619	9391	9392	2
9620	9391	9393	1
9621	9392	9394	1
9622	9392	9399	1
9623	9393	9395	1
9624	9393	9396	1
9625	9393	9434	1
9626	9395	9397	1
9627	9395	9493	1
9628	9395	9497	1
9629	9397	9398	1
9630	9397	9399	1
9631	9397	9433	1
9632	9399	9400	2
9633	9400	9401	1
9634	9400	9402	1
9635	9402	9403	2
9636	9402	9404	1
9637	9403	9405	1
9638	9403	9432	1
9639	9405	9406	2
9640	9405	9407	1
9641	9406	9408	1
9642	9406	9409	1
9643	9407	9410	1
9644	9407	9411	1
9645	9407	9412	1
9646	9408	9410	1
9647	9408	9413	2
9648	9409	9414	3
9649	9411	9415	1
9650	9411	9416	1
9651	9411	9417	1
9652	9412	9418	1
9653	9412	9419	2
9654	9413	9420	1
9655	9413	9421	1
9656	9418	9422	1
9657	9418	9423	2
9658	9419	9424	1
9659	9419	9425	1
9660	9420	9426	3
9661	9421	9427	3
9662	9423	9428	1
9663	9423	9429	1
9664	9424	9429	2
9665	9424	9430	1
9666	9429	9431	1
9667	9435	9438	1
9668	9435	9490	1
9669	9435	9491	1
9670	9436	9437	1
9671	9436	9486	1
9672	9436	9489	1
9673	9437	9440	1
9674	9437	9487	1
9675	9437	9488	1
9676	9438	9439	1
9677	9438	9485	1
9678	9438	9492	1
9679	9439	9483	1
9680	9440	9484	1
9681	9441	9447	1
9682	9441	9459	1
9683	9441	9463	1
9684	9441	9484	1
9685	9442	9443	1
9686	9442	9451	1
9687	9442	9455	1
9688	9442	9483	1
9689	9443	9444	1
9690	9443	9445	1
9691	9443	9446	1
9692	9447	9448	1
9693	9447	9449	1
9694	9447	9450	1
9695	9451	9452	1
9696	9451	9453	1
9697	9451	9454	1
9698	9455	9456	1
9699	9455	9457	1
9700	9455	9458	1
9701	9459	9460	1
9702	9459	9461	1
9703	9459	9462	1
9704	9463	9464	1
9705	9463	9465	1
9706	9463	9466	1
9707	9467	9468	1
9708	9467	9469	1
9709	9467	9470	1
9710	9467	9484	1
9711	9471	9472	1
9712	9471	9473	1
9713	9471	9474	1
9714	9471	9484	1
9715	9475	9476	1
9716	9475	9477	1
9717	9475	9478	1
9718	9475	9483	1
9719	9479	9480	1
9720	9479	9481	1
9721	9479	9482	1
9722	9479	9483	1
9723	9493	9494	1
9724	9493	9495	1
9725	9493	9496	1
9726	9497	9498	1
9727	9497	9499	1
9728	9497	9500	1
9729	9501	9502	2
9730	9501	9504	1
9731	9501	9509	1
9732	9502	9503	1
9733	9502	9516	1
9734	9505	9506	1
9735	9505	9547	1
9736	9505	9548	1
9737	9506	9507	1
9738	9506	9511	1
9739	9507	9508	2
9740	9507	9512	1
9741	9508	9509	1
9742	9508	9513	1
9743	9509	9510	2
9744	9510	9511	1
9745	9510	9514	1
9746	9511	9515	1
9747	9516	9517	2
9748	9516	9518	1
9749	9517	9519	1
9750	9517	9524	1
9751	9518	9520	1
9752	9518	9521	1
9753	9518	9546	1
9754	9520	9522	1
9755	9520	9605	1
9756	9520	9609	1
9757	9522	9523	1
9758	9522	9524	1
9759	9522	9545	1
9760	9524	9525	2
9761	9525	9526	1
9762	9525	9527	1
9763	9527	9528	2
9764	9527	9529	1
9765	9528	9530	1
9766	9528	9544	1
9767	9530	9531	2
9768	9530	9532	1
9769	9531	9533	1
9770	9531	9534	1
9771	9532	9535	1
9772	9532	9536	1
9773	9532	9537	1
9774	9533	9535	1
9775	9533	9538	2
9776	9534	9539	3
9777	9536	9613	1
9778	9536	9614	2
9779	9537	9623	1
9780	9537	9624	1
9781	9537	9625	1
9782	9538	9540	1
9783	9538	9541	1
9784	9540	9542	3
9785	9541	9543	3
9786	9547	9550	1
9787	9547	9602	1
9788	9547	9603	1
9789	9548	9549	1
9790	9548	9598	1
9791	9548	9601	1
9792	9549	9552	1
9793	9549	9599	1
9794	9549	9600	1
9795	9550	9551	1
9796	9550	9597	1
9797	9550	9604	1
9798	9551	9595	1
9799	9552	9596	1
9800	9553	9559	1
9801	9553	9571	1
9802	9553	9575	1
9803	9553	9596	1
9804	9554	9555	1
9805	9554	9563	1
9806	9554	9567	1
9807	9554	9595	1
9808	9555	9556	1
9809	9555	9557	1
9810	9555	9558	1
9811	9559	9560	1
9812	9559	9561	1
9813	9559	9562	1
9814	9563	9564	1
9815	9563	9565	1
9816	9563	9566	1
9817	9567	9568	1
9818	9567	9569	1
9819	9567	9570	1
9820	9571	9572	1
9821	9571	9573	1
9822	9571	9574	1
9823	9575	9576	1
9824	9575	9577	1
9825	9575	9578	1
9826	9579	9580	1
9827	9579	9581	1
9828	9579	9582	1
9829	9579	9596	1
9830	9583	9584	1
9831	9583	9585	1
9832	9583	9586	1
9833	9583	9596	1
9834	9587	9588	1
9835	9587	9589	1
9836	9587	9590	1
9837	9587	9595	1
9838	9591	9592	1
9839	9591	9593	1
9840	9591	9594	1
9841	9591	9595	1
9842	9605	9606	1
9843	9605	9607	1
9844	9605	9608	1
9845	9609	9610	1
9846	9609	9611	1
9847	9609	9612	1
9848	9613	9615	2
9849	9613	9616	1
9850	9614	9617	1
9851	9614	9618	1
9852	9615	9619	1
9853	9615	9620	1
9854	9617	9619	2
9855	9617	9622	1
9856	9619	9621	1
9857	9626	9627	2
9858	9626	9629	1
9859	9626	9634	1
9860	9627	9628	1
9861	9627	9641	1
9862	9630	9631	1
9863	9630	9685	1
9864	9630	9686	1
9865	9631	9632	1
9866	9631	9636	1
9867	9632	9633	2
9868	9632	9637	1
9869	9633	9634	1
9870	9633	9638	1
9871	9634	9635	2
9872	9635	9636	1
9873	9635	9639	1
9874	9636	9640	1
9875	9641	9642	2
9876	9641	9643	1
9877	9642	9644	1
9878	9642	9649	1
9879	9643	9645	1
9880	9643	9646	1
9881	9643	9684	1
9882	9645	9647	1
9883	9645	9743	1
9884	9645	9747	1
9885	9647	9648	1
9886	9647	9649	1
9887	9647	9683	1
9888	9649	9650	2
9889	9650	9651	1
9890	9650	9652	1
9891	9652	9653	2
9892	9652	9654	1
9893	9653	9655	1
9894	9653	9682	1
9895	9655	9656	2
9896	9655	9657	1
9897	9656	9658	1
9898	9656	9659	1
9899	9657	9660	1
9900	9657	9661	1
9901	9657	9662	1
9902	9658	9660	1
9903	9658	9663	2
9904	9659	9664	3
9905	9661	9665	1
9906	9661	9666	1
9907	9661	9667	1
9908	9662	9668	1
9909	9662	9669	2
9910	9663	9670	1
9911	9663	9671	1
9912	9668	9672	1
9913	9668	9673	2
9914	9669	9674	1
9915	9669	9675	1
9916	9670	9676	3
9917	9671	9677	3
9918	9673	9678	1
9919	9673	9679	1
9920	9674	9679	2
9921	9674	9680	1
9922	9679	9681	1
9923	9685	9688	1
9924	9685	9740	1
9925	9685	9741	1
9926	9686	9687	1
9927	9686	9736	1
9928	9686	9739	1
9929	9687	9690	1
9930	9687	9737	1
9931	9687	9738	1
9932	9688	9689	1
9933	9688	9735	1
9934	9688	9742	1
9935	9689	9733	1
9936	9690	9734	1
9937	9691	9697	1
9938	9691	9709	1
9939	9691	9713	1
9940	9691	9734	1
9941	9692	9693	1
9942	9692	9701	1
9943	9692	9705	1
9944	9692	9733	1
9945	9693	9694	1
9946	9693	9695	1
9947	9693	9696	1
9948	9697	9698	1
9949	9697	9699	1
9950	9697	9700	1
9951	9701	9702	1
9952	9701	9703	1
9953	9701	9704	1
9954	9705	9706	1
9955	9705	9707	1
9956	9705	9708	1
9957	9709	9710	1
9958	9709	9711	1
9959	9709	9712	1
9960	9713	9714	1
9961	9713	9715	1
9962	9713	9716	1
9963	9717	9718	1
9964	9717	9719	1
9965	9717	9720	1
9966	9717	9734	1
9967	9721	9722	1
9968	9721	9723	1
9969	9721	9724	1
9970	9721	9734	1
9971	9725	9726	1
9972	9725	9727	1
9973	9725	9728	1
9974	9725	9733	1
9975	9729	9730	1
9976	9729	9731	1
9977	9729	9732	1
9978	9729	9733	1
9979	9743	9744	1
9980	9743	9745	1
9981	9743	9746	1
9982	9747	9748	1
9983	9747	9749	1
9984	9747	9750	1
9985	9751	9752	2
9986	9751	9754	1
9987	9751	9759	1
9988	9752	9753	1
9989	9752	9766	1
9990	9755	9756	1
9991	9755	9810	1
9992	9755	9811	1
9993	9756	9757	1
9994	9756	9761	1
9995	9757	9758	2
9996	9757	9762	1
9997	9758	9759	1
9998	9758	9763	1
9999	9759	9760	2
10000	9760	9761	1
10001	9760	9764	1
10002	9761	9765	1
10003	9766	9767	2
10004	9766	9768	1
10005	9767	9769	1
10006	9767	9774	1
10007	9768	9770	1
10008	9768	9771	1
10009	9768	9809	1
10010	9770	9772	1
10011	9770	9868	1
10012	9770	9872	1
10013	9772	9773	1
10014	9772	9774	1
10015	9772	9808	1
10016	9774	9775	2
10017	9775	9776	1
10018	9775	9777	1
10019	9777	9778	2
10020	9777	9779	1
10021	9778	9780	1
10022	9778	9807	1
10023	9780	9781	2
10024	9780	9782	1
10025	9781	9783	1
10026	9781	9784	1
10027	9782	9785	1
10028	9782	9786	1
10029	9782	9787	1
10030	9783	9785	1
10031	9783	9788	2
10032	9784	9789	3
10033	9786	9790	1
10034	9786	9791	1
10035	9786	9792	1
10036	9787	9793	1
10037	9787	9794	2
10038	9788	9795	1
10039	9788	9796	1
10040	9793	9797	1
10041	9793	9798	2
10042	9794	9799	1
10043	9794	9800	1
10044	9795	9801	3
10045	9796	9802	3
10046	9798	9803	1
10047	9798	9804	1
10048	9799	9804	2
10049	9799	9805	1
10050	9804	9806	1
10051	9810	9813	1
10052	9810	9865	1
10053	9810	9866	1
10054	9811	9812	1
10055	9811	9861	1
10056	9811	9864	1
10057	9812	9815	1
10058	9812	9862	1
10059	9812	9863	1
10060	9813	9814	1
10061	9813	9860	1
10062	9813	9867	1
10063	9814	9858	1
10064	9815	9859	1
10065	9816	9822	1
10066	9816	9834	1
10067	9816	9838	1
10068	9816	9859	1
10069	9817	9818	1
10070	9817	9826	1
10071	9817	9830	1
10072	9817	9858	1
10073	9818	9819	1
10074	9818	9820	1
10075	9818	9821	1
10076	9822	9823	1
10077	9822	9824	1
10078	9822	9825	1
10079	9826	9827	1
10080	9826	9828	1
10081	9826	9829	1
10082	9830	9831	1
10083	9830	9832	1
10084	9830	9833	1
10085	9834	9835	1
10086	9834	9836	1
10087	9834	9837	1
10088	9838	9839	1
10089	9838	9840	1
10090	9838	9841	1
10091	9842	9843	1
10092	9842	9844	1
10093	9842	9845	1
10094	9842	9859	1
10095	9846	9847	1
10096	9846	9848	1
10097	9846	9849	1
10098	9846	9859	1
10099	9850	9851	1
10100	9850	9852	1
10101	9850	9853	1
10102	9850	9858	1
10103	9854	9855	1
10104	9854	9856	1
10105	9854	9857	1
10106	9854	9858	1
10107	9868	9869	1
10108	9868	9870	1
10109	9868	9871	1
10110	9872	9873	1
10111	9872	9874	1
10112	9872	9875	1
10113	9876	9877	2
10114	9876	9879	1
10115	9876	9884	1
10116	9877	9878	1
10117	9877	9891	1
10118	9880	9881	1
10119	9880	9922	1
10120	9880	9923	1
10121	9881	9882	1
10122	9881	9886	1
10123	9882	9883	2
10124	9882	9887	1
10125	9883	9884	1
10126	9883	9888	1
10127	9884	9885	2
10128	9885	9886	1
10129	9885	9889	1
10130	9886	9890	1
10131	9891	9892	2
10132	9891	9893	1
10133	9892	9894	1
10134	9892	9899	1
10135	9893	9895	1
10136	9893	9896	1
10137	9893	9921	1
10138	9895	9897	1
10139	9895	9980	1
10140	9895	9984	1
10141	9897	9898	1
10142	9897	9899	1
10143	9897	9920	1
10144	9899	9900	2
10145	9900	9901	1
10146	9900	9902	1
10147	9902	9903	2
10148	9902	9904	1
10149	9903	9905	1
10150	9903	9919	1
10151	9905	9906	2
10152	9905	9907	1
10153	9906	9908	1
10154	9906	9909	1
10155	9907	9910	1
10156	9907	9911	1
10157	9907	9912	1
10158	9908	9910	1
10159	9908	9913	2
10160	9909	9914	3
10161	9911	9988	1
10162	9911	9989	2
10163	9912	9998	1
10164	9912	9999	1
10165	9912	10000	1
10166	9913	9915	1
10167	9913	9916	1
10168	9915	9917	3
10169	9916	9918	3
10170	9922	9925	1
10171	9922	9977	1
10172	9922	9978	1
10173	9923	9924	1
10174	9923	9973	1
10175	9923	9976	1
10176	9924	9927	1
10177	9924	9974	1
10178	9924	9975	1
10179	9925	9926	1
10180	9925	9972	1
10181	9925	9979	1
10182	9926	9970	1
10183	9927	9971	1
10184	9928	9934	1
10185	9928	9946	1
10186	9928	9950	1
10187	9928	9971	1
10188	9929	9930	1
10189	9929	9938	1
10190	9929	9942	1
10191	9929	9970	1
10192	9930	9931	1
10193	9930	9932	1
10194	9930	9933	1
10195	9934	9935	1
10196	9934	9936	1
10197	9934	9937	1
10198	9938	9939	1
10199	9938	9940	1
10200	9938	9941	1
10201	9942	9943	1
10202	9942	9944	1
10203	9942	9945	1
10204	9946	9947	1
10205	9946	9948	1
10206	9946	9949	1
10207	9950	9951	1
10208	9950	9952	1
10209	9950	9953	1
10210	9954	9955	1
10211	9954	9956	1
10212	9954	9957	1
10213	9954	9971	1
10214	9958	9959	1
10215	9958	9960	1
10216	9958	9961	1
10217	9958	9971	1
10218	9962	9963	1
10219	9962	9964	1
10220	9962	9965	1
10221	9962	9970	1
10222	9966	9967	1
10223	9966	9968	1
10224	9966	9969	1
10225	9966	9970	1
10226	9980	9981	1
10227	9980	9982	1
10228	9980	9983	1
10229	9984	9985	1
10230	9984	9986	1
10231	9984	9987	1
10232	9988	9990	2
10233	9988	9991	1
10234	9989	9992	1
10235	9989	9993	1
10236	9990	9994	1
10237	9990	9995	1
10238	9992	9994	2
10239	9992	9997	1
10240	9994	9996	1
10241	10001	10002	2
10242	10001	10004	1
10243	10001	10009	1
10244	10002	10003	1
10245	10002	10016	1
10246	10005	10006	1
10247	10005	10047	1
10248	10005	10048	1
10249	10006	10007	1
10250	10006	10011	1
10251	10007	10008	2
10252	10007	10012	1
10253	10008	10009	1
10254	10008	10013	1
10255	10009	10010	2
10256	10010	10011	1
10257	10010	10014	1
10258	10011	10015	1
10259	10016	10017	2
10260	10016	10018	1
10261	10017	10019	1
10262	10017	10024	1
10263	10018	10020	1
10264	10018	10021	1
10265	10018	10046	1
10266	10020	10022	1
10267	10020	10105	1
10268	10020	10109	1
10269	10022	10023	1
10270	10022	10024	1
10271	10022	10045	1
10272	10024	10025	2
10273	10025	10026	1
10274	10025	10027	1
10275	10027	10028	2
10276	10027	10029	1
10277	10028	10030	1
10278	10028	10044	1
10279	10030	10031	2
10280	10030	10032	1
10281	10031	10033	1
10282	10031	10034	1
10283	10032	10035	1
10284	10032	10036	1
10285	10032	10037	1
10286	10033	10035	1
10287	10033	10038	2
10288	10034	10039	3
10289	10036	10113	1
10290	10036	10114	2
10291	10037	10123	1
10292	10037	10124	1
10293	10037	10125	1
10294	10038	10040	1
10295	10038	10041	1
10296	10040	10042	3
10297	10041	10043	3
10298	10047	10050	1
10299	10047	10102	1
10300	10047	10103	1
10301	10048	10049	1
10302	10048	10098	1
10303	10048	10101	1
10304	10049	10052	1
10305	10049	10099	1
10306	10049	10100	1
10307	10050	10051	1
10308	10050	10097	1
10309	10050	10104	1
10310	10051	10095	1
10311	10052	10096	1
10312	10053	10059	1
10313	10053	10071	1
10314	10053	10075	1
10315	10053	10096	1
10316	10054	10055	1
10317	10054	10063	1
10318	10054	10067	1
10319	10054	10095	1
10320	10055	10056	1
10321	10055	10057	1
10322	10055	10058	1
10323	10059	10060	1
10324	10059	10061	1
10325	10059	10062	1
10326	10063	10064	1
10327	10063	10065	1
10328	10063	10066	1
10329	10067	10068	1
10330	10067	10069	1
10331	10067	10070	1
10332	10071	10072	1
10333	10071	10073	1
10334	10071	10074	1
10335	10075	10076	1
10336	10075	10077	1
10337	10075	10078	1
10338	10079	10080	1
10339	10079	10081	1
10340	10079	10082	1
10341	10079	10096	1
10342	10083	10084	1
10343	10083	10085	1
10344	10083	10086	1
10345	10083	10096	1
10346	10087	10088	1
10347	10087	10089	1
10348	10087	10090	1
10349	10087	10095	1
10350	10091	10092	1
10351	10091	10093	1
10352	10091	10094	1
10353	10091	10095	1
10354	10105	10106	1
10355	10105	10107	1
10356	10105	10108	1
10357	10109	10110	1
10358	10109	10111	1
10359	10109	10112	1
10360	10113	10115	2
10361	10113	10116	1
10362	10114	10117	1
10363	10114	10118	1
10364	10115	10119	1
10365	10115	10120	1
10366	10117	10119	2
10367	10117	10122	1
10368	10119	10121	1
10369	10126	10127	2
10370	10126	10129	1
10371	10126	10134	1
10372	10127	10128	1
10373	10127	10141	1
10374	10130	10131	1
10375	10130	10185	1
10376	10130	10186	1
10377	10131	10132	1
10378	10131	10136	1
10379	10132	10133	2
10380	10132	10137	1
10381	10133	10134	1
10382	10133	10138	1
10383	10134	10135	2
10384	10135	10136	1
10385	10135	10139	1
10386	10136	10140	1
10387	10141	10142	2
10388	10141	10143	1
10389	10142	10144	1
10390	10142	10149	1
10391	10143	10145	1
10392	10143	10146	1
10393	10143	10184	1
10394	10145	10147	1
10395	10145	10243	1
10396	10145	10247	1
10397	10147	10148	1
10398	10147	10149	1
10399	10147	10183	1
10400	10149	10150	2
10401	10150	10151	1
10402	10150	10152	1
10403	10152	10153	2
10404	10152	10154	1
10405	10153	10155	1
10406	10153	10182	1
10407	10155	10156	2
10408	10155	10157	1
10409	10156	10158	1
10410	10156	10159	1
10411	10157	10160	1
10412	10157	10161	1
10413	10157	10162	1
10414	10158	10160	1
10415	10158	10163	2
10416	10159	10164	3
10417	10161	10165	1
10418	10161	10166	1
10419	10161	10167	1
10420	10162	10168	1
10421	10162	10169	2
10422	10163	10170	1
10423	10163	10171	1
10424	10168	10172	1
10425	10168	10173	2
10426	10169	10174	1
10427	10169	10175	1
10428	10170	10176	3
10429	10171	10177	3
10430	10173	10178	1
10431	10173	10179	1
10432	10174	10179	2
10433	10174	10180	1
10434	10179	10181	1
10435	10185	10188	1
10436	10185	10240	1
10437	10185	10241	1
10438	10186	10187	1
10439	10186	10236	1
10440	10186	10239	1
10441	10187	10190	1
10442	10187	10237	1
10443	10187	10238	1
10444	10188	10189	1
10445	10188	10235	1
10446	10188	10242	1
10447	10189	10233	1
10448	10190	10234	1
10449	10191	10197	1
10450	10191	10209	1
10451	10191	10213	1
10452	10191	10234	1
10453	10192	10193	1
10454	10192	10201	1
10455	10192	10205	1
10456	10192	10233	1
10457	10193	10194	1
10458	10193	10195	1
10459	10193	10196	1
10460	10197	10198	1
10461	10197	10199	1
10462	10197	10200	1
10463	10201	10202	1
10464	10201	10203	1
10465	10201	10204	1
10466	10205	10206	1
10467	10205	10207	1
10468	10205	10208	1
10469	10209	10210	1
10470	10209	10211	1
10471	10209	10212	1
10472	10213	10214	1
10473	10213	10215	1
10474	10213	10216	1
10475	10217	10218	1
10476	10217	10219	1
10477	10217	10220	1
10478	10217	10234	1
10479	10221	10222	1
10480	10221	10223	1
10481	10221	10224	1
10482	10221	10234	1
10483	10225	10226	1
10484	10225	10227	1
10485	10225	10228	1
10486	10225	10233	1
10487	10229	10230	1
10488	10229	10231	1
10489	10229	10232	1
10490	10229	10233	1
10491	10243	10244	1
10492	10243	10245	1
10493	10243	10246	1
10494	10247	10248	1
10495	10247	10249	1
10496	10247	10250	1
10497	10251	10252	2
10498	10251	10254	1
10499	10251	10259	1
10500	10252	10253	1
10501	10252	10266	1
10502	10255	10256	1
10503	10255	10310	1
10504	10255	10311	1
10505	10256	10257	1
10506	10256	10261	1
10507	10257	10258	2
10508	10257	10262	1
10509	10258	10259	1
10510	10258	10263	1
10511	10259	10260	2
10512	10260	10261	1
10513	10260	10264	1
10514	10261	10265	1
10515	10266	10267	2
10516	10266	10268	1
10517	10267	10269	1
10518	10267	10274	1
10519	10268	10270	1
10520	10268	10271	1
10521	10268	10309	1
10522	10270	10272	1
10523	10270	10368	1
10524	10270	10372	1
10525	10272	10273	1
10526	10272	10274	1
10527	10272	10308	1
10528	10274	10275	2
10529	10275	10276	1
10530	10275	10277	1
10531	10277	10278	2
10532	10277	10279	1
10533	10278	10280	1
10534	10278	10307	1
10535	10280	10281	2
10536	10280	10282	1
10537	10281	10283	1
10538	10281	10284	1
10539	10282	10285	1
10540	10282	10286	1
10541	10282	10287	1
10542	10283	10285	1
10543	10283	10288	2
10544	10284	10289	3
10545	10286	10290	1
10546	10286	10291	1
10547	10286	10292	1
10548	10287	10293	1
10549	10287	10294	2
10550	10288	10295	1
10551	10288	10296	1
10552	10293	10297	1
10553	10293	10298	2
10554	10294	10299	1
10555	10294	10300	1
10556	10295	10301	3
10557	10296	10302	3
10558	10298	10303	1
10559	10298	10304	1
10560	10299	10304	2
10561	10299	10305	1
10562	10304	10306	1
10563	10310	10313	1
10564	10310	10365	1
10565	10310	10366	1
10566	10311	10312	1
10567	10311	10361	1
10568	10311	10364	1
10569	10312	10315	1
10570	10312	10362	1
10571	10312	10363	1
10572	10313	10314	1
10573	10313	10360	1
10574	10313	10367	1
10575	10314	10358	1
10576	10315	10359	1
10577	10316	10322	1
10578	10316	10334	1
10579	10316	10338	1
10580	10316	10359	1
10581	10317	10318	1
10582	10317	10326	1
10583	10317	10330	1
10584	10317	10358	1
10585	10318	10319	1
10586	10318	10320	1
10587	10318	10321	1
10588	10322	10323	1
10589	10322	10324	1
10590	10322	10325	1
10591	10326	10327	1
10592	10326	10328	1
10593	10326	10329	1
10594	10330	10331	1
10595	10330	10332	1
10596	10330	10333	1
10597	10334	10335	1
10598	10334	10336	1
10599	10334	10337	1
10600	10338	10339	1
10601	10338	10340	1
10602	10338	10341	1
10603	10342	10343	1
10604	10342	10344	1
10605	10342	10345	1
10606	10342	10359	1
10607	10346	10347	1
10608	10346	10348	1
10609	10346	10349	1
10610	10346	10359	1
10611	10350	10351	1
10612	10350	10352	1
10613	10350	10353	1
10614	10350	10358	1
10615	10354	10355	1
10616	10354	10356	1
10617	10354	10357	1
10618	10354	10358	1
10619	10368	10369	1
10620	10368	10370	1
10621	10368	10371	1
10622	10372	10373	1
10623	10372	10374	1
10624	10372	10375	1
10625	10376	10377	2
10626	10376	10379	1
10627	10376	10384	1
10628	10377	10378	1
10629	10377	10391	1
10630	10380	10381	1
10631	10380	10422	1
10632	10380	10423	1
10633	10381	10382	1
10634	10381	10386	1
10635	10382	10383	2
10636	10382	10387	1
10637	10383	10384	1
10638	10383	10388	1
10639	10384	10385	2
10640	10385	10386	1
10641	10385	10389	1
10642	10386	10390	1
10643	10391	10392	2
10644	10391	10393	1
10645	10392	10394	1
10646	10392	10399	1
10647	10393	10395	1
10648	10393	10396	1
10649	10393	10421	1
10650	10395	10397	1
10651	10395	10480	1
10652	10395	10484	1
10653	10397	10398	1
10654	10397	10399	1
10655	10397	10420	1
10656	10399	10400	2
10657	10400	10401	1
10658	10400	10402	1
10659	10402	10403	2
10660	10402	10404	1
10661	10403	10405	1
10662	10403	10419	1
10663	10405	10406	2
10664	10405	10407	1
10665	10406	10408	1
10666	10406	10409	1
10667	10407	10410	1
10668	10407	10411	1
10669	10407	10412	1
10670	10408	10410	1
10671	10408	10413	2
10672	10409	10414	3
10673	10411	10488	1
10674	10411	10489	2
10675	10412	10498	1
10676	10412	10499	1
10677	10412	10500	1
10678	10413	10415	1
10679	10413	10416	1
10680	10415	10417	3
10681	10416	10418	3
10682	10422	10425	1
10683	10422	10477	1
10684	10422	10478	1
10685	10423	10424	1
10686	10423	10473	1
10687	10423	10476	1
10688	10424	10427	1
10689	10424	10474	1
10690	10424	10475	1
10691	10425	10426	1
10692	10425	10472	1
10693	10425	10479	1
10694	10426	10470	1
10695	10427	10471	1
10696	10428	10434	1
10697	10428	10446	1
10698	10428	10450	1
10699	10428	10471	1
10700	10429	10430	1
10701	10429	10438	1
10702	10429	10442	1
10703	10429	10470	1
10704	10430	10431	1
10705	10430	10432	1
10706	10430	10433	1
10707	10434	10435	1
10708	10434	10436	1
10709	10434	10437	1
10710	10438	10439	1
10711	10438	10440	1
10712	10438	10441	1
10713	10442	10443	1
10714	10442	10444	1
10715	10442	10445	1
10716	10446	10447	1
10717	10446	10448	1
10718	10446	10449	1
10719	10450	10451	1
10720	10450	10452	1
10721	10450	10453	1
10722	10454	10455	1
10723	10454	10456	1
10724	10454	10457	1
10725	10454	10471	1
10726	10458	10459	1
10727	10458	10460	1
10728	10458	10461	1
10729	10458	10471	1
10730	10462	10463	1
10731	10462	10464	1
10732	10462	10465	1
10733	10462	10470	1
10734	10466	10467	1
10735	10466	10468	1
10736	10466	10469	1
10737	10466	10470	1
10738	10480	10481	1
10739	10480	10482	1
10740	10480	10483	1
10741	10484	10485	1
10742	10484	10486	1
10743	10484	10487	1
10744	10488	10490	2
10745	10488	10491	1
10746	10489	10492	1
10747	10489	10493	1
10748	10490	10494	1
10749	10490	10495	1
10750	10492	10494	2
10751	10492	10497	1
10752	10494	10496	1
10753	10501	10502	2
10754	10501	10504	1
10755	10501	10509	1
10756	10502	10503	1
10757	10502	10516	1
10758	10505	10506	1
10759	10505	10547	1
10760	10505	10548	1
10761	10506	10507	1
10762	10506	10511	1
10763	10507	10508	2
10764	10507	10512	1
10765	10508	10509	1
10766	10508	10513	1
10767	10509	10510	2
10768	10510	10511	1
10769	10510	10514	1
10770	10511	10515	1
10771	10516	10517	2
10772	10516	10518	1
10773	10517	10519	1
10774	10517	10524	1
10775	10518	10520	1
10776	10518	10521	1
10777	10518	10546	1
10778	10520	10522	1
10779	10520	10605	1
10780	10520	10609	1
10781	10522	10523	1
10782	10522	10524	1
10783	10522	10545	1
10784	10524	10525	2
10785	10525	10526	1
10786	10525	10527	1
10787	10527	10528	2
10788	10527	10529	1
10789	10528	10530	1
10790	10528	10544	1
10791	10530	10531	2
10792	10530	10532	1
10793	10531	10533	1
10794	10531	10534	1
10795	10532	10535	1
10796	10532	10536	1
10797	10532	10537	1
10798	10533	10535	1
10799	10533	10538	2
10800	10534	10539	3
10801	10536	10613	1
10802	10536	10614	2
10803	10537	10623	1
10804	10537	10624	1
10805	10537	10625	1
10806	10538	10540	1
10807	10538	10541	1
10808	10540	10542	3
10809	10541	10543	3
10810	10547	10550	1
10811	10547	10602	1
10812	10547	10603	1
10813	10548	10549	1
10814	10548	10598	1
10815	10548	10601	1
10816	10549	10552	1
10817	10549	10599	1
10818	10549	10600	1
10819	10550	10551	1
10820	10550	10597	1
10821	10550	10604	1
10822	10551	10595	1
10823	10552	10596	1
10824	10553	10559	1
10825	10553	10571	1
10826	10553	10575	1
10827	10553	10596	1
10828	10554	10555	1
10829	10554	10563	1
10830	10554	10567	1
10831	10554	10595	1
10832	10555	10556	1
10833	10555	10557	1
10834	10555	10558	1
10835	10559	10560	1
10836	10559	10561	1
10837	10559	10562	1
10838	10563	10564	1
10839	10563	10565	1
10840	10563	10566	1
10841	10567	10568	1
10842	10567	10569	1
10843	10567	10570	1
10844	10571	10572	1
10845	10571	10573	1
10846	10571	10574	1
10847	10575	10576	1
10848	10575	10577	1
10849	10575	10578	1
10850	10579	10580	1
10851	10579	10581	1
10852	10579	10582	1
10853	10579	10596	1
10854	10583	10584	1
10855	10583	10585	1
10856	10583	10586	1
10857	10583	10596	1
10858	10587	10588	1
10859	10587	10589	1
10860	10587	10590	1
10861	10587	10595	1
10862	10591	10592	1
10863	10591	10593	1
10864	10591	10594	1
10865	10591	10595	1
10866	10605	10606	1
10867	10605	10607	1
10868	10605	10608	1
10869	10609	10610	1
10870	10609	10611	1
10871	10609	10612	1
10872	10613	10615	2
10873	10613	10616	1
10874	10614	10617	1
10875	10614	10618	1
10876	10615	10619	1
10877	10615	10620	1
10878	10617	10619	2
10879	10617	10622	1
10880	10619	10621	1
10881	10626	10627	2
10882	10626	10629	1
10883	10626	10634	1
10884	10627	10628	1
10885	10627	10641	1
10886	10630	10631	1
10887	10630	10672	1
10888	10630	10673	1
10889	10631	10632	1
10890	10631	10636	1
10891	10632	10633	2
10892	10632	10637	1
10893	10633	10634	1
10894	10633	10638	1
10895	10634	10635	2
10896	10635	10636	1
10897	10635	10639	1
10898	10636	10640	1
10899	10641	10642	2
10900	10641	10643	1
10901	10642	10644	1
10902	10642	10649	1
10903	10643	10645	1
10904	10643	10646	1
10905	10643	10671	1
10906	10645	10647	1
10907	10645	10730	1
10908	10645	10734	1
10909	10647	10648	1
10910	10647	10649	1
10911	10647	10670	1
10912	10649	10650	2
10913	10650	10651	1
10914	10650	10652	1
10915	10652	10653	2
10916	10652	10654	1
10917	10653	10655	1
10918	10653	10669	1
10919	10655	10656	2
10920	10655	10657	1
10921	10656	10658	1
10922	10656	10659	1
10923	10657	10660	1
10924	10657	10661	1
10925	10657	10662	1
10926	10658	10660	1
10927	10658	10663	2
10928	10659	10664	3
10929	10661	10738	1
10930	10661	10739	2
10931	10662	10748	1
10932	10662	10749	1
10933	10662	10750	1
10934	10663	10665	1
10935	10663	10666	1
10936	10665	10667	3
10937	10666	10668	3
10938	10672	10675	1
10939	10672	10727	1
10940	10672	10728	1
10941	10673	10674	1
10942	10673	10723	1
10943	10673	10726	1
10944	10674	10677	1
10945	10674	10724	1
10946	10674	10725	1
10947	10675	10676	1
10948	10675	10722	1
10949	10675	10729	1
10950	10676	10720	1
10951	10677	10721	1
10952	10678	10684	1
10953	10678	10696	1
10954	10678	10700	1
10955	10678	10721	1
10956	10679	10680	1
10957	10679	10688	1
10958	10679	10692	1
10959	10679	10720	1
10960	10680	10681	1
10961	10680	10682	1
10962	10680	10683	1
10963	10684	10685	1
10964	10684	10686	1
10965	10684	10687	1
10966	10688	10689	1
10967	10688	10690	1
10968	10688	10691	1
10969	10692	10693	1
10970	10692	10694	1
10971	10692	10695	1
10972	10696	10697	1
10973	10696	10698	1
10974	10696	10699	1
10975	10700	10701	1
10976	10700	10702	1
10977	10700	10703	1
10978	10704	10705	1
10979	10704	10706	1
10980	10704	10707	1
10981	10704	10721	1
10982	10708	10709	1
10983	10708	10710	1
10984	10708	10711	1
10985	10708	10721	1
10986	10712	10713	1
10987	10712	10714	1
10988	10712	10715	1
10989	10712	10720	1
10990	10716	10717	1
10991	10716	10718	1
10992	10716	10719	1
10993	10716	10720	1
10994	10730	10731	1
10995	10730	10732	1
10996	10730	10733	1
10997	10734	10735	1
10998	10734	10736	1
10999	10734	10737	1
11000	10738	10740	2
11001	10738	10741	1
11002	10739	10742	1
11003	10739	10743	1
11004	10740	10744	1
11005	10740	10745	1
11006	10742	10744	2
11007	10742	10747	1
11008	10744	10746	1
11009	10751	10752	2
11010	10751	10754	1
11011	10751	10759	1
11012	10752	10753	1
11013	10752	10766	1
11014	10755	10756	1
11015	10755	10797	1
11016	10755	10798	1
11017	10756	10757	1
11018	10756	10761	1
11019	10757	10758	2
11020	10757	10762	1
11021	10758	10759	1
11022	10758	10763	1
11023	10759	10760	2
11024	10760	10761	1
11025	10760	10764	1
11026	10761	10765	1
11027	10766	10767	2
11028	10766	10768	1
11029	10767	10769	1
11030	10767	10774	1
11031	10768	10770	1
11032	10768	10771	1
11033	10768	10796	1
11034	10770	10772	1
11035	10770	10855	1
11036	10770	10859	1
11037	10772	10773	1
11038	10772	10774	1
11039	10772	10795	1
11040	10774	10775	2
11041	10775	10776	1
11042	10775	10777	1
11043	10777	10778	2
11044	10777	10779	1
11045	10778	10780	1
11046	10778	10794	1
11047	10780	10781	2
11048	10780	10782	1
11049	10781	10783	1
11050	10781	10784	1
11051	10782	10785	1
11052	10782	10786	1
11053	10782	10787	1
11054	10783	10785	1
11055	10783	10788	2
11056	10784	10789	3
11057	10786	10863	1
11058	10786	10864	2
11059	10787	10873	1
11060	10787	10874	1
11061	10787	10875	1
11062	10788	10790	1
11063	10788	10791	1
11064	10790	10792	3
11065	10791	10793	3
11066	10797	10800	1
11067	10797	10852	1
11068	10797	10853	1
11069	10798	10799	1
11070	10798	10848	1
11071	10798	10851	1
11072	10799	10802	1
11073	10799	10849	1
11074	10799	10850	1
11075	10800	10801	1
11076	10800	10847	1
11077	10800	10854	1
11078	10801	10845	1
11079	10802	10846	1
11080	10803	10809	1
11081	10803	10821	1
11082	10803	10825	1
11083	10803	10846	1
11084	10804	10805	1
11085	10804	10813	1
11086	10804	10817	1
11087	10804	10845	1
11088	10805	10806	1
11089	10805	10807	1
11090	10805	10808	1
11091	10809	10810	1
11092	10809	10811	1
11093	10809	10812	1
11094	10813	10814	1
11095	10813	10815	1
11096	10813	10816	1
11097	10817	10818	1
11098	10817	10819	1
11099	10817	10820	1
11100	10821	10822	1
11101	10821	10823	1
11102	10821	10824	1
11103	10825	10826	1
11104	10825	10827	1
11105	10825	10828	1
11106	10829	10830	1
11107	10829	10831	1
11108	10829	10832	1
11109	10829	10846	1
11110	10833	10834	1
11111	10833	10835	1
11112	10833	10836	1
11113	10833	10846	1
11114	10837	10838	1
11115	10837	10839	1
11116	10837	10840	1
11117	10837	10845	1
11118	10841	10842	1
11119	10841	10843	1
11120	10841	10844	1
11121	10841	10845	1
11122	10855	10856	1
11123	10855	10857	1
11124	10855	10858	1
11125	10859	10860	1
11126	10859	10861	1
11127	10859	10862	1
11128	10863	10865	2
11129	10863	10866	1
11130	10864	10867	1
11131	10864	10868	1
11132	10865	10869	1
11133	10865	10870	1
11134	10867	10869	2
11135	10867	10872	1
11136	10869	10871	1
11137	10876	10877	2
11138	10876	10879	1
11139	10876	10884	1
11140	10877	10878	1
11141	10877	10891	1
11142	10880	10881	1
11143	10880	10935	1
11144	10880	10936	1
11145	10881	10882	1
11146	10881	10886	1
11147	10882	10883	2
11148	10882	10887	1
11149	10883	10884	1
11150	10883	10888	1
11151	10884	10885	2
11152	10885	10886	1
11153	10885	10889	1
11154	10886	10890	1
11155	10891	10892	2
11156	10891	10893	1
11157	10892	10894	1
11158	10892	10899	1
11159	10893	10895	1
11160	10893	10896	1
11161	10893	10934	1
11162	10895	10897	1
11163	10895	10993	1
11164	10895	10997	1
11165	10897	10898	1
11166	10897	10899	1
11167	10897	10933	1
11168	10899	10900	2
11169	10900	10901	1
11170	10900	10902	1
11171	10902	10903	2
11172	10902	10904	1
11173	10903	10905	1
11174	10903	10932	1
11175	10905	10906	2
11176	10905	10907	1
11177	10906	10908	1
11178	10906	10909	1
11179	10907	10910	1
11180	10907	10911	1
11181	10907	10912	1
11182	10908	10910	1
11183	10908	10913	2
11184	10909	10914	3
11185	10911	10915	1
11186	10911	10916	1
11187	10911	10917	1
11188	10912	10918	1
11189	10912	10919	2
11190	10913	10920	1
11191	10913	10921	1
11192	10918	10922	1
11193	10918	10923	2
11194	10919	10924	1
11195	10919	10925	1
11196	10920	10926	3
11197	10921	10927	3
11198	10923	10928	1
11199	10923	10929	1
11200	10924	10929	2
11201	10924	10930	1
11202	10929	10931	1
11203	10935	10938	1
11204	10935	10990	1
11205	10935	10991	1
11206	10936	10937	1
11207	10936	10986	1
11208	10936	10989	1
11209	10937	10940	1
11210	10937	10987	1
11211	10937	10988	1
11212	10938	10939	1
11213	10938	10985	1
11214	10938	10992	1
11215	10939	10983	1
11216	10940	10984	1
11217	10941	10947	1
11218	10941	10959	1
11219	10941	10963	1
11220	10941	10984	1
11221	10942	10943	1
11222	10942	10951	1
11223	10942	10955	1
11224	10942	10983	1
11225	10943	10944	1
11226	10943	10945	1
11227	10943	10946	1
11228	10947	10948	1
11229	10947	10949	1
11230	10947	10950	1
11231	10951	10952	1
11232	10951	10953	1
11233	10951	10954	1
11234	10955	10956	1
11235	10955	10957	1
11236	10955	10958	1
11237	10959	10960	1
11238	10959	10961	1
11239	10959	10962	1
11240	10963	10964	1
11241	10963	10965	1
11242	10963	10966	1
11243	10967	10968	1
11244	10967	10969	1
11245	10967	10970	1
11246	10967	10984	1
11247	10971	10972	1
11248	10971	10973	1
11249	10971	10974	1
11250	10971	10984	1
11251	10975	10976	1
11252	10975	10977	1
11253	10975	10978	1
11254	10975	10983	1
11255	10979	10980	1
11256	10979	10981	1
11257	10979	10982	1
11258	10979	10983	1
11259	10993	10994	1
11260	10993	10995	1
11261	10993	10996	1
11262	10997	10998	1
11263	10997	10999	1
11264	10997	11000	1
11265	11001	11002	2
11266	11001	11004	1
11267	11001	11009	1
11268	11002	11003	1
11269	11002	11016	1
11270	11005	11006	1
11271	11005	11060	1
11272	11005	11061	1
11273	11006	11007	1
11274	11006	11011	1
11275	11007	11008	2
11276	11007	11012	1
11277	11008	11009	1
11278	11008	11013	1
11279	11009	11010	2
11280	11010	11011	1
11281	11010	11014	1
11282	11011	11015	1
11283	11016	11017	2
11284	11016	11018	1
11285	11017	11019	1
11286	11017	11024	1
11287	11018	11020	1
11288	11018	11021	1
11289	11018	11059	1
11290	11020	11022	1
11291	11020	11118	1
11292	11020	11122	1
11293	11022	11023	1
11294	11022	11024	1
11295	11022	11058	1
11296	11024	11025	2
11297	11025	11026	1
11298	11025	11027	1
11299	11027	11028	2
11300	11027	11029	1
11301	11028	11030	1
11302	11028	11057	1
11303	11030	11031	2
11304	11030	11032	1
11305	11031	11033	1
11306	11031	11034	1
11307	11032	11035	1
11308	11032	11036	1
11309	11032	11037	1
11310	11033	11035	1
11311	11033	11038	2
11312	11034	11039	3
11313	11036	11040	1
11314	11036	11041	1
11315	11036	11042	1
11316	11037	11043	1
11317	11037	11044	2
11318	11038	11045	1
11319	11038	11046	1
11320	11043	11047	1
11321	11043	11048	2
11322	11044	11049	1
11323	11044	11050	1
11324	11045	11051	3
11325	11046	11052	3
11326	11048	11053	1
11327	11048	11054	1
11328	11049	11054	2
11329	11049	11055	1
11330	11054	11056	1
11331	11060	11063	1
11332	11060	11115	1
11333	11060	11116	1
11334	11061	11062	1
11335	11061	11111	1
11336	11061	11114	1
11337	11062	11065	1
11338	11062	11112	1
11339	11062	11113	1
11340	11063	11064	1
11341	11063	11110	1
11342	11063	11117	1
11343	11064	11108	1
11344	11065	11109	1
11345	11066	11072	1
11346	11066	11084	1
11347	11066	11088	1
11348	11066	11109	1
11349	11067	11068	1
11350	11067	11076	1
11351	11067	11080	1
11352	11067	11108	1
11353	11068	11069	1
11354	11068	11070	1
11355	11068	11071	1
11356	11072	11073	1
11357	11072	11074	1
11358	11072	11075	1
11359	11076	11077	1
11360	11076	11078	1
11361	11076	11079	1
11362	11080	11081	1
11363	11080	11082	1
11364	11080	11083	1
11365	11084	11085	1
11366	11084	11086	1
11367	11084	11087	1
11368	11088	11089	1
11369	11088	11090	1
11370	11088	11091	1
11371	11092	11093	1
11372	11092	11094	1
11373	11092	11095	1
11374	11092	11109	1
11375	11096	11097	1
11376	11096	11098	1
11377	11096	11099	1
11378	11096	11109	1
11379	11100	11101	1
11380	11100	11102	1
11381	11100	11103	1
11382	11100	11108	1
11383	11104	11105	1
11384	11104	11106	1
11385	11104	11107	1
11386	11104	11108	1
11387	11118	11119	1
11388	11118	11120	1
11389	11118	11121	1
11390	11122	11123	1
11391	11122	11124	1
11392	11122	11125	1
11393	11126	11127	2
11394	11126	11129	1
11395	11126	11134	1
11396	11127	11128	1
11397	11127	11141	1
11398	11130	11131	1
11399	11130	11172	1
11400	11130	11173	1
11401	11131	11132	1
11402	11131	11136	1
11403	11132	11133	2
11404	11132	11137	1
11405	11133	11134	1
11406	11133	11138	1
11407	11134	11135	2
11408	11135	11136	1
11409	11135	11139	1
11410	11136	11140	1
11411	11141	11142	2
11412	11141	11143	1
11413	11142	11144	1
11414	11142	11149	1
11415	11143	11145	1
11416	11143	11146	1
11417	11143	11171	1
11418	11145	11147	1
11419	11145	11230	1
11420	11145	11234	1
11421	11147	11148	1
11422	11147	11149	1
11423	11147	11170	1
11424	11149	11150	2
11425	11150	11151	1
11426	11150	11152	1
11427	11152	11153	2
11428	11152	11154	1
11429	11153	11155	1
11430	11153	11169	1
11431	11155	11156	2
11432	11155	11157	1
11433	11156	11158	1
11434	11156	11159	1
11435	11157	11160	1
11436	11157	11161	1
11437	11157	11162	1
11438	11158	11160	1
11439	11158	11163	2
11440	11159	11164	3
11441	11161	11238	1
11442	11161	11239	2
11443	11162	11248	1
11444	11162	11249	1
11445	11162	11250	1
11446	11163	11165	1
11447	11163	11166	1
11448	11165	11167	3
11449	11166	11168	3
11450	11172	11175	1
11451	11172	11227	1
11452	11172	11228	1
11453	11173	11174	1
11454	11173	11223	1
11455	11173	11226	1
11456	11174	11177	1
11457	11174	11224	1
11458	11174	11225	1
11459	11175	11176	1
11460	11175	11222	1
11461	11175	11229	1
11462	11176	11220	1
11463	11177	11221	1
11464	11178	11184	1
11465	11178	11196	1
11466	11178	11200	1
11467	11178	11221	1
11468	11179	11180	1
11469	11179	11188	1
11470	11179	11192	1
11471	11179	11220	1
11472	11180	11181	1
11473	11180	11182	1
11474	11180	11183	1
11475	11184	11185	1
11476	11184	11186	1
11477	11184	11187	1
11478	11188	11189	1
11479	11188	11190	1
11480	11188	11191	1
11481	11192	11193	1
11482	11192	11194	1
11483	11192	11195	1
11484	11196	11197	1
11485	11196	11198	1
11486	11196	11199	1
11487	11200	11201	1
11488	11200	11202	1
11489	11200	11203	1
11490	11204	11205	1
11491	11204	11206	1
11492	11204	11207	1
11493	11204	11221	1
11494	11208	11209	1
11495	11208	11210	1
11496	11208	11211	1
11497	11208	11221	1
11498	11212	11213	1
11499	11212	11214	1
11500	11212	11215	1
11501	11212	11220	1
11502	11216	11217	1
11503	11216	11218	1
11504	11216	11219	1
11505	11216	11220	1
11506	11230	11231	1
11507	11230	11232	1
11508	11230	11233	1
11509	11234	11235	1
11510	11234	11236	1
11511	11234	11237	1
11512	11238	11240	2
11513	11238	11241	1
11514	11239	11242	1
11515	11239	11243	1
11516	11240	11244	1
11517	11240	11245	1
11518	11242	11244	2
11519	11242	11247	1
11520	11244	11246	1
11521	11251	11252	2
11522	11251	11254	1
11523	11251	11259	1
11524	11252	11253	1
11525	11252	11266	1
11526	11255	11256	1
11527	11255	11297	1
11528	11255	11298	1
11529	11256	11257	1
11530	11256	11261	1
11531	11257	11258	2
11532	11257	11262	1
11533	11258	11259	1
11534	11258	11263	1
11535	11259	11260	2
11536	11260	11261	1
11537	11260	11264	1
11538	11261	11265	1
11539	11266	11267	2
11540	11266	11268	1
11541	11267	11269	1
11542	11267	11274	1
11543	11268	11270	1
11544	11268	11271	1
11545	11268	11296	1
11546	11270	11272	1
11547	11270	11355	1
11548	11270	11359	1
11549	11272	11273	1
11550	11272	11274	1
11551	11272	11295	1
11552	11274	11275	2
11553	11275	11276	1
11554	11275	11277	1
11555	11277	11278	2
11556	11277	11279	1
11557	11278	11280	1
11558	11278	11294	1
11559	11280	11281	2
11560	11280	11282	1
11561	11281	11283	1
11562	11281	11284	1
11563	11282	11285	1
11564	11282	11286	1
11565	11282	11287	1
11566	11283	11285	1
11567	11283	11288	2
11568	11284	11289	3
11569	11286	11363	1
11570	11286	11364	2
11571	11287	11373	1
11572	11287	11374	1
11573	11287	11375	1
11574	11288	11290	1
11575	11288	11291	1
11576	11290	11292	3
11577	11291	11293	3
11578	11297	11300	1
11579	11297	11352	1
11580	11297	11353	1
11581	11298	11299	1
11582	11298	11348	1
11583	11298	11351	1
11584	11299	11302	1
11585	11299	11349	1
11586	11299	11350	1
11587	11300	11301	1
11588	11300	11347	1
11589	11300	11354	1
11590	11301	11345	1
11591	11302	11346	1
11592	11303	11309	1
11593	11303	11321	1
11594	11303	11325	1
11595	11303	11346	1
11596	11304	11305	1
11597	11304	11313	1
11598	11304	11317	1
11599	11304	11345	1
11600	11305	11306	1
11601	11305	11307	1
11602	11305	11308	1
11603	11309	11310	1
11604	11309	11311	1
11605	11309	11312	1
11606	11313	11314	1
11607	11313	11315	1
11608	11313	11316	1
11609	11317	11318	1
11610	11317	11319	1
11611	11317	11320	1
11612	11321	11322	1
11613	11321	11323	1
11614	11321	11324	1
11615	11325	11326	1
11616	11325	11327	1
11617	11325	11328	1
11618	11329	11330	1
11619	11329	11331	1
11620	11329	11332	1
11621	11329	11346	1
11622	11333	11334	1
11623	11333	11335	1
11624	11333	11336	1
11625	11333	11346	1
11626	11337	11338	1
11627	11337	11339	1
11628	11337	11340	1
11629	11337	11345	1
11630	11341	11342	1
11631	11341	11343	1
11632	11341	11344	1
11633	11341	11345	1
11634	11355	11356	1
11635	11355	11357	1
11636	11355	11358	1
11637	11359	11360	1
11638	11359	11361	1
11639	11359	11362	1
11640	11363	11365	2
11641	11363	11366	1
11642	11364	11367	1
11643	11364	11368	1
11644	11365	11369	1
11645	11365	11370	1
11646	11367	11369	2
11647	11367	11372	1
11648	11369	11371	1
11649	11376	11377	2
11650	11376	11379	1
11651	11376	11384	1
11652	11377	11378	1
11653	11377	11391	1
11654	11380	11381	1
11655	11380	11435	1
11656	11380	11436	1
11657	11381	11382	1
11658	11381	11386	1
11659	11382	11383	2
11660	11382	11387	1
11661	11383	11384	1
11662	11383	11388	1
11663	11384	11385	2
11664	11385	11386	1
11665	11385	11389	1
11666	11386	11390	1
11667	11391	11392	2
11668	11391	11393	1
11669	11392	11394	1
11670	11392	11399	1
11671	11393	11395	1
11672	11393	11396	1
11673	11393	11434	1
11674	11395	11397	1
11675	11395	11493	1
11676	11395	11497	1
11677	11397	11398	1
11678	11397	11399	1
11679	11397	11433	1
11680	11399	11400	2
11681	11400	11401	1
11682	11400	11402	1
11683	11402	11403	2
11684	11402	11404	1
11685	11403	11405	1
11686	11403	11432	1
11687	11405	11406	2
11688	11405	11407	1
11689	11406	11408	1
11690	11406	11409	1
11691	11407	11410	1
11692	11407	11411	1
11693	11407	11412	1
11694	11408	11410	1
11695	11408	11413	2
11696	11409	11414	3
11697	11411	11415	1
11698	11411	11416	1
11699	11411	11417	1
11700	11412	11418	1
11701	11412	11419	2
11702	11413	11420	1
11703	11413	11421	1
11704	11418	11422	1
11705	11418	11423	2
11706	11419	11424	1
11707	11419	11425	1
11708	11420	11426	3
11709	11421	11427	3
11710	11423	11428	1
11711	11423	11429	1
11712	11424	11429	2
11713	11424	11430	1
11714	11429	11431	1
11715	11435	11438	1
11716	11435	11490	1
11717	11435	11491	1
11718	11436	11437	1
11719	11436	11486	1
11720	11436	11489	1
11721	11437	11440	1
11722	11437	11487	1
11723	11437	11488	1
11724	11438	11439	1
11725	11438	11485	1
11726	11438	11492	1
11727	11439	11483	1
11728	11440	11484	1
11729	11441	11447	1
11730	11441	11459	1
11731	11441	11463	1
11732	11441	11484	1
11733	11442	11443	1
11734	11442	11451	1
11735	11442	11455	1
11736	11442	11483	1
11737	11443	11444	1
11738	11443	11445	1
11739	11443	11446	1
11740	11447	11448	1
11741	11447	11449	1
11742	11447	11450	1
11743	11451	11452	1
11744	11451	11453	1
11745	11451	11454	1
11746	11455	11456	1
11747	11455	11457	1
11748	11455	11458	1
11749	11459	11460	1
11750	11459	11461	1
11751	11459	11462	1
11752	11463	11464	1
11753	11463	11465	1
11754	11463	11466	1
11755	11467	11468	1
11756	11467	11469	1
11757	11467	11470	1
11758	11467	11484	1
11759	11471	11472	1
11760	11471	11473	1
11761	11471	11474	1
11762	11471	11484	1
11763	11475	11476	1
11764	11475	11477	1
11765	11475	11478	1
11766	11475	11483	1
11767	11479	11480	1
11768	11479	11481	1
11769	11479	11482	1
11770	11479	11483	1
11771	11493	11494	1
11772	11493	11495	1
11773	11493	11496	1
11774	11497	11498	1
11775	11497	11499	1
11776	11497	11500	1
11777	11501	11502	2
11778	11501	11504	1
11779	11501	11509	1
11780	11502	11503	1
11781	11502	11516	1
11782	11505	11506	1
11783	11505	11560	1
11784	11505	11561	1
11785	11506	11507	1
11786	11506	11511	1
11787	11507	11508	2
11788	11507	11512	1
11789	11508	11509	1
11790	11508	11513	1
11791	11509	11510	2
11792	11510	11511	1
11793	11510	11514	1
11794	11511	11515	1
11795	11516	11517	2
11796	11516	11518	1
11797	11517	11519	1
11798	11517	11524	1
11799	11518	11520	1
11800	11518	11521	1
11801	11518	11559	1
11802	11520	11522	1
11803	11520	11618	1
11804	11520	11622	1
11805	11522	11523	1
11806	11522	11524	1
11807	11522	11558	1
11808	11524	11525	2
11809	11525	11526	1
11810	11525	11527	1
11811	11527	11528	2
11812	11527	11529	1
11813	11528	11530	1
11814	11528	11557	1
11815	11530	11531	2
11816	11530	11532	1
11817	11531	11533	1
11818	11531	11534	1
11819	11532	11535	1
11820	11532	11536	1
11821	11532	11537	1
11822	11533	11535	1
11823	11533	11538	2
11824	11534	11539	3
11825	11536	11540	1
11826	11536	11541	1
11827	11536	11542	1
11828	11537	11543	1
11829	11537	11544	2
11830	11538	11545	1
11831	11538	11546	1
11832	11543	11547	1
11833	11543	11548	2
11834	11544	11549	1
11835	11544	11550	1
11836	11545	11551	3
11837	11546	11552	3
11838	11548	11553	1
11839	11548	11554	1
11840	11549	11554	2
11841	11549	11555	1
11842	11554	11556	1
11843	11560	11563	1
11844	11560	11615	1
11845	11560	11616	1
11846	11561	11562	1
11847	11561	11611	1
11848	11561	11614	1
11849	11562	11565	1
11850	11562	11612	1
11851	11562	11613	1
11852	11563	11564	1
11853	11563	11610	1
11854	11563	11617	1
11855	11564	11608	1
11856	11565	11609	1
11857	11566	11572	1
11858	11566	11584	1
11859	11566	11588	1
11860	11566	11609	1
11861	11567	11568	1
11862	11567	11576	1
11863	11567	11580	1
11864	11567	11608	1
11865	11568	11569	1
11866	11568	11570	1
11867	11568	11571	1
11868	11572	11573	1
11869	11572	11574	1
11870	11572	11575	1
11871	11576	11577	1
11872	11576	11578	1
11873	11576	11579	1
11874	11580	11581	1
11875	11580	11582	1
11876	11580	11583	1
11877	11584	11585	1
11878	11584	11586	1
11879	11584	11587	1
11880	11588	11589	1
11881	11588	11590	1
11882	11588	11591	1
11883	11592	11593	1
11884	11592	11594	1
11885	11592	11595	1
11886	11592	11609	1
11887	11596	11597	1
11888	11596	11598	1
11889	11596	11599	1
11890	11596	11609	1
11891	11600	11601	1
11892	11600	11602	1
11893	11600	11603	1
11894	11600	11608	1
11895	11604	11605	1
11896	11604	11606	1
11897	11604	11607	1
11898	11604	11608	1
11899	11618	11619	1
11900	11618	11620	1
11901	11618	11621	1
11902	11622	11623	1
11903	11622	11624	1
11904	11622	11625	1
11905	11626	11627	2
11906	11626	11629	1
11907	11626	11634	1
11908	11627	11628	1
11909	11627	11641	1
11910	11630	11631	1
11911	11630	11685	1
11912	11630	11686	1
11913	11631	11632	1
11914	11631	11636	1
11915	11632	11633	2
11916	11632	11637	1
11917	11633	11634	1
11918	11633	11638	1
11919	11634	11635	2
11920	11635	11636	1
11921	11635	11639	1
11922	11636	11640	1
11923	11641	11642	2
11924	11641	11643	1
11925	11642	11644	1
11926	11642	11649	1
11927	11643	11645	1
11928	11643	11646	1
11929	11643	11684	1
11930	11645	11647	1
11931	11645	11743	1
11932	11645	11747	1
11933	11647	11648	1
11934	11647	11649	1
11935	11647	11683	1
11936	11649	11650	2
11937	11650	11651	1
11938	11650	11652	1
11939	11652	11653	2
11940	11652	11654	1
11941	11653	11655	1
11942	11653	11682	1
11943	11655	11656	2
11944	11655	11657	1
11945	11656	11658	1
11946	11656	11659	1
11947	11657	11660	1
11948	11657	11661	1
11949	11657	11662	1
11950	11658	11660	1
11951	11658	11663	2
11952	11659	11664	3
11953	11661	11665	1
11954	11661	11666	1
11955	11661	11667	1
11956	11662	11668	1
11957	11662	11669	2
11958	11663	11670	1
11959	11663	11671	1
11960	11668	11672	1
11961	11668	11673	2
11962	11669	11674	1
11963	11669	11675	1
11964	11670	11676	3
11965	11671	11677	3
11966	11673	11678	1
11967	11673	11679	1
11968	11674	11679	2
11969	11674	11680	1
11970	11679	11681	1
11971	11685	11688	1
11972	11685	11740	1
11973	11685	11741	1
11974	11686	11687	1
11975	11686	11736	1
11976	11686	11739	1
11977	11687	11690	1
11978	11687	11737	1
11979	11687	11738	1
11980	11688	11689	1
11981	11688	11735	1
11982	11688	11742	1
11983	11689	11733	1
11984	11690	11734	1
11985	11691	11697	1
11986	11691	11709	1
11987	11691	11713	1
11988	11691	11734	1
11989	11692	11693	1
11990	11692	11701	1
11991	11692	11705	1
11992	11692	11733	1
11993	11693	11694	1
11994	11693	11695	1
11995	11693	11696	1
11996	11697	11698	1
11997	11697	11699	1
11998	11697	11700	1
11999	11701	11702	1
12000	11701	11703	1
12001	11701	11704	1
12002	11705	11706	1
12003	11705	11707	1
12004	11705	11708	1
12005	11709	11710	1
12006	11709	11711	1
12007	11709	11712	1
12008	11713	11714	1
12009	11713	11715	1
12010	11713	11716	1
12011	11717	11718	1
12012	11717	11719	1
12013	11717	11720	1
12014	11717	11734	1
12015	11721	11722	1
12016	11721	11723	1
12017	11721	11724	1
12018	11721	11734	1
12019	11725	11726	1
12020	11725	11727	1
12021	11725	11728	1
12022	11725	11733	1
12023	11729	11730	1
12024	11729	11731	1
12025	11729	11732	1
12026	11729	11733	1
12027	11743	11744	1
12028	11743	11745	1
12029	11743	11746	1
12030	11747	11748	1
12031	11747	11749	1
12032	11747	11750	1
12033	11751	11752	2
12034	11751	11754	1
12035	11751	11759	1
12036	11752	11753	1
12037	11752	11766	1
12038	11755	11756	1
12039	11755	11797	1
12040	11755	11798	1
12041	11756	11757	1
12042	11756	11761	1
12043	11757	11758	2
12044	11757	11762	1
12045	11758	11759	1
12046	11758	11763	1
12047	11759	11760	2
12048	11760	11761	1
12049	11760	11764	1
12050	11761	11765	1
12051	11766	11767	2
12052	11766	11768	1
12053	11767	11769	1
12054	11767	11774	1
12055	11768	11770	1
12056	11768	11771	1
12057	11768	11796	1
12058	11770	11772	1
12059	11770	11855	1
12060	11770	11859	1
12061	11772	11773	1
12062	11772	11774	1
12063	11772	11795	1
12064	11774	11775	2
12065	11775	11776	1
12066	11775	11777	1
12067	11777	11778	2
12068	11777	11779	1
12069	11778	11780	1
12070	11778	11794	1
12071	11780	11781	2
12072	11780	11782	1
12073	11781	11783	1
12074	11781	11784	1
12075	11782	11785	1
12076	11782	11786	1
12077	11782	11787	1
12078	11783	11785	1
12079	11783	11788	2
12080	11784	11789	3
12081	11786	11863	1
12082	11786	11864	2
12083	11787	11873	1
12084	11787	11874	1
12085	11787	11875	1
12086	11788	11790	1
12087	11788	11791	1
12088	11790	11792	3
12089	11791	11793	3
12090	11797	11800	1
12091	11797	11852	1
12092	11797	11853	1
12093	11798	11799	1
12094	11798	11848	1
12095	11798	11851	1
12096	11799	11802	1
12097	11799	11849	1
12098	11799	11850	1
12099	11800	11801	1
12100	11800	11847	1
12101	11800	11854	1
12102	11801	11845	1
12103	11802	11846	1
12104	11803	11809	1
12105	11803	11821	1
12106	11803	11825	1
12107	11803	11846	1
12108	11804	11805	1
12109	11804	11813	1
12110	11804	11817	1
12111	11804	11845	1
12112	11805	11806	1
12113	11805	11807	1
12114	11805	11808	1
12115	11809	11810	1
12116	11809	11811	1
12117	11809	11812	1
12118	11813	11814	1
12119	11813	11815	1
12120	11813	11816	1
12121	11817	11818	1
12122	11817	11819	1
12123	11817	11820	1
12124	11821	11822	1
12125	11821	11823	1
12126	11821	11824	1
12127	11825	11826	1
12128	11825	11827	1
12129	11825	11828	1
12130	11829	11830	1
12131	11829	11831	1
12132	11829	11832	1
12133	11829	11846	1
12134	11833	11834	1
12135	11833	11835	1
12136	11833	11836	1
12137	11833	11846	1
12138	11837	11838	1
12139	11837	11839	1
12140	11837	11840	1
12141	11837	11845	1
12142	11841	11842	1
12143	11841	11843	1
12144	11841	11844	1
12145	11841	11845	1
12146	11855	11856	1
12147	11855	11857	1
12148	11855	11858	1
12149	11859	11860	1
12150	11859	11861	1
12151	11859	11862	1
12152	11863	11865	2
12153	11863	11866	1
12154	11864	11867	1
12155	11864	11868	1
12156	11865	11869	1
12157	11865	11870	1
12158	11867	11869	2
12159	11867	11872	1
12160	11869	11871	1
12161	11876	11877	2
12162	11876	11879	1
12163	11876	11884	1
12164	11877	11878	1
12165	11877	11891	1
12166	11880	11881	1
12167	11880	11922	1
12168	11880	11923	1
12169	11881	11882	1
12170	11881	11886	1
12171	11882	11883	2
12172	11882	11887	1
12173	11883	11884	1
12174	11883	11888	1
12175	11884	11885	2
12176	11885	11886	1
12177	11885	11889	1
12178	11886	11890	1
12179	11891	11892	2
12180	11891	11893	1
12181	11892	11894	1
12182	11892	11899	1
12183	11893	11895	1
12184	11893	11896	1
12185	11893	11921	1
12186	11895	11897	1
12187	11895	11980	1
12188	11895	11984	1
12189	11897	11898	1
12190	11897	11899	1
12191	11897	11920	1
12192	11899	11900	2
12193	11900	11901	1
12194	11900	11902	1
12195	11902	11903	2
12196	11902	11904	1
12197	11903	11905	1
12198	11903	11919	1
12199	11905	11906	2
12200	11905	11907	1
12201	11906	11908	1
12202	11906	11909	1
12203	11907	11910	1
12204	11907	11911	1
12205	11907	11912	1
12206	11908	11910	1
12207	11908	11913	2
12208	11909	11914	3
12209	11911	11988	1
12210	11911	11989	2
12211	11912	11998	1
12212	11912	11999	1
12213	11912	12000	1
12214	11913	11915	1
12215	11913	11916	1
12216	11915	11917	3
12217	11916	11918	3
12218	11922	11925	1
12219	11922	11977	1
12220	11922	11978	1
12221	11923	11924	1
12222	11923	11973	1
12223	11923	11976	1
12224	11924	11927	1
12225	11924	11974	1
12226	11924	11975	1
12227	11925	11926	1
12228	11925	11972	1
12229	11925	11979	1
12230	11926	11970	1
12231	11927	11971	1
12232	11928	11934	1
12233	11928	11946	1
12234	11928	11950	1
12235	11928	11971	1
12236	11929	11930	1
12237	11929	11938	1
12238	11929	11942	1
12239	11929	11970	1
12240	11930	11931	1
12241	11930	11932	1
12242	11930	11933	1
12243	11934	11935	1
12244	11934	11936	1
12245	11934	11937	1
12246	11938	11939	1
12247	11938	11940	1
12248	11938	11941	1
12249	11942	11943	1
12250	11942	11944	1
12251	11942	11945	1
12252	11946	11947	1
12253	11946	11948	1
12254	11946	11949	1
12255	11950	11951	1
12256	11950	11952	1
12257	11950	11953	1
12258	11954	11955	1
12259	11954	11956	1
12260	11954	11957	1
12261	11954	11971	1
12262	11958	11959	1
12263	11958	11960	1
12264	11958	11961	1
12265	11958	11971	1
12266	11962	11963	1
12267	11962	11964	1
12268	11962	11965	1
12269	11962	11970	1
12270	11966	11967	1
12271	11966	11968	1
12272	11966	11969	1
12273	11966	11970	1
12274	11980	11981	1
12275	11980	11982	1
12276	11980	11983	1
12277	11984	11985	1
12278	11984	11986	1
12279	11984	11987	1
12280	11988	11990	2
12281	11988	11991	1
12282	11989	11992	1
12283	11989	11993	1
12284	11990	11994	1
12285	11990	11995	1
12286	11992	11994	2
12287	11992	11997	1
12288	11994	11996	1
12289	12001	12002	2
12290	12001	12004	1
12291	12001	12009	1
12292	12002	12003	1
12293	12002	12016	1
12294	12005	12006	1
12295	12005	12060	1
12296	12005	12061	1
12297	12006	12007	1
12298	12006	12011	1
12299	12007	12008	2
12300	12007	12012	1
12301	12008	12009	1
12302	12008	12013	1
12303	12009	12010	2
12304	12010	12011	1
12305	12010	12014	1
12306	12011	12015	1
12307	12016	12017	2
12308	12016	12018	1
12309	12017	12019	1
12310	12017	12024	1
12311	12018	12020	1
12312	12018	12021	1
12313	12018	12059	1
12314	12020	12022	1
12315	12020	12118	1
12316	12020	12122	1
12317	12022	12023	1
12318	12022	12024	1
12319	12022	12058	1
12320	12024	12025	2
12321	12025	12026	1
12322	12025	12027	1
12323	12027	12028	2
12324	12027	12029	1
12325	12028	12030	1
12326	12028	12057	1
12327	12030	12031	2
12328	12030	12032	1
12329	12031	12033	1
12330	12031	12034	1
12331	12032	12035	1
12332	12032	12036	1
12333	12032	12037	1
12334	12033	12035	1
12335	12033	12038	2
12336	12034	12039	3
12337	12036	12040	1
12338	12036	12041	1
12339	12036	12042	1
12340	12037	12043	1
12341	12037	12044	2
12342	12038	12045	1
12343	12038	12046	1
12344	12043	12047	1
12345	12043	12048	2
12346	12044	12049	1
12347	12044	12050	1
12348	12045	12051	3
12349	12046	12052	3
12350	12048	12053	1
12351	12048	12054	1
12352	12049	12054	2
12353	12049	12055	1
12354	12054	12056	1
12355	12060	12063	1
12356	12060	12115	1
12357	12060	12116	1
12358	12061	12062	1
12359	12061	12111	1
12360	12061	12114	1
12361	12062	12065	1
12362	12062	12112	1
12363	12062	12113	1
12364	12063	12064	1
12365	12063	12110	1
12366	12063	12117	1
12367	12064	12108	1
12368	12065	12109	1
12369	12066	12072	1
12370	12066	12084	1
12371	12066	12088	1
12372	12066	12109	1
12373	12067	12068	1
12374	12067	12076	1
12375	12067	12080	1
12376	12067	12108	1
12377	12068	12069	1
12378	12068	12070	1
12379	12068	12071	1
12380	12072	12073	1
12381	12072	12074	1
12382	12072	12075	1
12383	12076	12077	1
12384	12076	12078	1
12385	12076	12079	1
12386	12080	12081	1
12387	12080	12082	1
12388	12080	12083	1
12389	12084	12085	1
12390	12084	12086	1
12391	12084	12087	1
12392	12088	12089	1
12393	12088	12090	1
12394	12088	12091	1
12395	12092	12093	1
12396	12092	12094	1
12397	12092	12095	1
12398	12092	12109	1
12399	12096	12097	1
12400	12096	12098	1
12401	12096	12099	1
12402	12096	12109	1
12403	12100	12101	1
12404	12100	12102	1
12405	12100	12103	1
12406	12100	12108	1
12407	12104	12105	1
12408	12104	12106	1
12409	12104	12107	1
12410	12104	12108	1
12411	12118	12119	1
12412	12118	12120	1
12413	12118	12121	1
12414	12122	12123	1
12415	12122	12124	1
12416	12122	12125	1
12417	12126	12127	2
12418	12126	12129	1
12419	12126	12134	1
12420	12127	12128	1
12421	12127	12141	1
12422	12130	12131	1
12423	12130	12185	1
12424	12130	12186	1
12425	12131	12132	1
12426	12131	12136	1
12427	12132	12133	2
12428	12132	12137	1
12429	12133	12134	1
12430	12133	12138	1
12431	12134	12135	2
12432	12135	12136	1
12433	12135	12139	1
12434	12136	12140	1
12435	12141	12142	2
12436	12141	12143	1
12437	12142	12144	1
12438	12142	12149	1
12439	12143	12145	1
12440	12143	12146	1
12441	12143	12184	1
12442	12145	12147	1
12443	12145	12243	1
12444	12145	12247	1
12445	12147	12148	1
12446	12147	12149	1
12447	12147	12183	1
12448	12149	12150	2
12449	12150	12151	1
12450	12150	12152	1
12451	12152	12153	2
12452	12152	12154	1
12453	12153	12155	1
12454	12153	12182	1
12455	12155	12156	2
12456	12155	12157	1
12457	12156	12158	1
12458	12156	12159	1
12459	12157	12160	1
12460	12157	12161	1
12461	12157	12162	1
12462	12158	12160	1
12463	12158	12163	2
12464	12159	12164	3
12465	12161	12165	1
12466	12161	12166	1
12467	12161	12167	1
12468	12162	12168	1
12469	12162	12169	2
12470	12163	12170	1
12471	12163	12171	1
12472	12168	12172	1
12473	12168	12173	2
12474	12169	12174	1
12475	12169	12175	1
12476	12170	12176	3
12477	12171	12177	3
12478	12173	12178	1
12479	12173	12179	1
12480	12174	12179	2
12481	12174	12180	1
12482	12179	12181	1
12483	12185	12188	1
12484	12185	12240	1
12485	12185	12241	1
12486	12186	12187	1
12487	12186	12236	1
12488	12186	12239	1
12489	12187	12190	1
12490	12187	12237	1
12491	12187	12238	1
12492	12188	12189	1
12493	12188	12235	1
12494	12188	12242	1
12495	12189	12233	1
12496	12190	12234	1
12497	12191	12197	1
12498	12191	12209	1
12499	12191	12213	1
12500	12191	12234	1
12501	12192	12193	1
12502	12192	12201	1
12503	12192	12205	1
12504	12192	12233	1
12505	12193	12194	1
12506	12193	12195	1
12507	12193	12196	1
12508	12197	12198	1
12509	12197	12199	1
12510	12197	12200	1
12511	12201	12202	1
12512	12201	12203	1
12513	12201	12204	1
12514	12205	12206	1
12515	12205	12207	1
12516	12205	12208	1
12517	12209	12210	1
12518	12209	12211	1
12519	12209	12212	1
12520	12213	12214	1
12521	12213	12215	1
12522	12213	12216	1
12523	12217	12218	1
12524	12217	12219	1
12525	12217	12220	1
12526	12217	12234	1
12527	12221	12222	1
12528	12221	12223	1
12529	12221	12224	1
12530	12221	12234	1
12531	12225	12226	1
12532	12225	12227	1
12533	12225	12228	1
12534	12225	12233	1
12535	12229	12230	1
12536	12229	12231	1
12537	12229	12232	1
12538	12229	12233	1
12539	12243	12244	1
12540	12243	12245	1
12541	12243	12246	1
12542	12247	12248	1
12543	12247	12249	1
12544	12247	12250	1
12545	12251	12252	2
12546	12251	12254	1
12547	12251	12259	1
12548	12252	12253	1
12549	12252	12266	1
12550	12255	12256	1
12551	12255	12310	1
12552	12255	12311	1
12553	12256	12257	1
12554	12256	12261	1
12555	12257	12258	2
12556	12257	12262	1
12557	12258	12259	1
12558	12258	12263	1
12559	12259	12260	2
12560	12260	12261	1
12561	12260	12264	1
12562	12261	12265	1
12563	12266	12267	2
12564	12266	12268	1
12565	12267	12269	1
12566	12267	12274	1
12567	12268	12270	1
12568	12268	12271	1
12569	12268	12309	1
12570	12270	12272	1
12571	12270	12368	1
12572	12270	12372	1
12573	12272	12273	1
12574	12272	12274	1
12575	12272	12308	1
12576	12274	12275	2
12577	12275	12276	1
12578	12275	12277	1
12579	12277	12278	2
12580	12277	12279	1
12581	12278	12280	1
12582	12278	12307	1
12583	12280	12281	2
12584	12280	12282	1
12585	12281	12283	1
12586	12281	12284	1
12587	12282	12285	1
12588	12282	12286	1
12589	12282	12287	1
12590	12283	12285	1
12591	12283	12288	2
12592	12284	12289	3
12593	12286	12290	1
12594	12286	12291	1
12595	12286	12292	1
12596	12287	12293	1
12597	12287	12294	2
12598	12288	12295	1
12599	12288	12296	1
12600	12293	12297	1
12601	12293	12298	2
12602	12294	12299	1
12603	12294	12300	1
12604	12295	12301	3
12605	12296	12302	3
12606	12298	12303	1
12607	12298	12304	1
12608	12299	12304	2
12609	12299	12305	1
12610	12304	12306	1
12611	12310	12313	1
12612	12310	12365	1
12613	12310	12366	1
12614	12311	12312	1
12615	12311	12361	1
12616	12311	12364	1
12617	12312	12315	1
12618	12312	12362	1
12619	12312	12363	1
12620	12313	12314	1
12621	12313	12360	1
12622	12313	12367	1
12623	12314	12358	1
12624	12315	12359	1
12625	12316	12322	1
12626	12316	12334	1
12627	12316	12338	1
12628	12316	12359	1
12629	12317	12318	1
12630	12317	12326	1
12631	12317	12330	1
12632	12317	12358	1
12633	12318	12319	1
12634	12318	12320	1
12635	12318	12321	1
12636	12322	12323	1
12637	12322	12324	1
12638	12322	12325	1
12639	12326	12327	1
12640	12326	12328	1
12641	12326	12329	1
12642	12330	12331	1
12643	12330	12332	1
12644	12330	12333	1
12645	12334	12335	1
12646	12334	12336	1
12647	12334	12337	1
12648	12338	12339	1
12649	12338	12340	1
12650	12338	12341	1
12651	12342	12343	1
12652	12342	12344	1
12653	12342	12345	1
12654	12342	12359	1
12655	12346	12347	1
12656	12346	12348	1
12657	12346	12349	1
12658	12346	12359	1
12659	12350	12351	1
12660	12350	12352	1
12661	12350	12353	1
12662	12350	12358	1
12663	12354	12355	1
12664	12354	12356	1
12665	12354	12357	1
12666	12354	12358	1
12667	12368	12369	1
12668	12368	12370	1
12669	12368	12371	1
12670	12372	12373	1
12671	12372	12374	1
12672	12372	12375	1
12673	12376	12377	2
12674	12376	12379	1
12675	12376	12384	1
12676	12377	12378	1
12677	12377	12391	1
12678	12380	12381	1
12679	12380	12435	1
12680	12380	12436	1
12681	12381	12382	1
12682	12381	12386	1
12683	12382	12383	2
12684	12382	12387	1
12685	12383	12384	1
12686	12383	12388	1
12687	12384	12385	2
12688	12385	12386	1
12689	12385	12389	1
12690	12386	12390	1
12691	12391	12392	2
12692	12391	12393	1
12693	12392	12394	1
12694	12392	12399	1
12695	12393	12395	1
12696	12393	12396	1
12697	12393	12434	1
12698	12395	12397	1
12699	12395	12493	1
12700	12395	12497	1
12701	12397	12398	1
12702	12397	12399	1
12703	12397	12433	1
12704	12399	12400	2
12705	12400	12401	1
12706	12400	12402	1
12707	12402	12403	2
12708	12402	12404	1
12709	12403	12405	1
12710	12403	12432	1
12711	12405	12406	2
12712	12405	12407	1
12713	12406	12408	1
12714	12406	12409	1
12715	12407	12410	1
12716	12407	12411	1
12717	12407	12412	1
12718	12408	12410	1
12719	12408	12413	2
12720	12409	12414	3
12721	12411	12415	1
12722	12411	12416	1
12723	12411	12417	1
12724	12412	12418	1
12725	12412	12419	2
12726	12413	12420	1
12727	12413	12421	1
12728	12418	12422	1
12729	12418	12423	2
12730	12419	12424	1
12731	12419	12425	1
12732	12420	12426	3
12733	12421	12427	3
12734	12423	12428	1
12735	12423	12429	1
12736	12424	12429	2
12737	12424	12430	1
12738	12429	12431	1
12739	12435	12438	1
12740	12435	12490	1
12741	12435	12491	1
12742	12436	12437	1
12743	12436	12486	1
12744	12436	12489	1
12745	12437	12440	1
12746	12437	12487	1
12747	12437	12488	1
12748	12438	12439	1
12749	12438	12485	1
12750	12438	12492	1
12751	12439	12483	1
12752	12440	12484	1
12753	12441	12447	1
12754	12441	12459	1
12755	12441	12463	1
12756	12441	12484	1
12757	12442	12443	1
12758	12442	12451	1
12759	12442	12455	1
12760	12442	12483	1
12761	12443	12444	1
12762	12443	12445	1
12763	12443	12446	1
12764	12447	12448	1
12765	12447	12449	1
12766	12447	12450	1
12767	12451	12452	1
12768	12451	12453	1
12769	12451	12454	1
12770	12455	12456	1
12771	12455	12457	1
12772	12455	12458	1
12773	12459	12460	1
12774	12459	12461	1
12775	12459	12462	1
12776	12463	12464	1
12777	12463	12465	1
12778	12463	12466	1
12779	12467	12468	1
12780	12467	12469	1
12781	12467	12470	1
12782	12467	12484	1
12783	12471	12472	1
12784	12471	12473	1
12785	12471	12474	1
12786	12471	12484	1
12787	12475	12476	1
12788	12475	12477	1
12789	12475	12478	1
12790	12475	12483	1
12791	12479	12480	1
12792	12479	12481	1
12793	12479	12482	1
12794	12479	12483	1
12795	12493	12494	1
12796	12493	12495	1
12797	12493	12496	1
12798	12497	12498	1
12799	12497	12499	1
12800	12497	12500	1
12801	12501	12502	2
12802	12501	12504	1
12803	12501	12509	1
12804	12502	12503	1
12805	12502	12516	1
12806	12505	12506	1
12807	12505	12547	1
12808	12505	12548	1
12809	12506	12507	1
12810	12506	12511	1
12811	12507	12508	2
12812	12507	12512	1
12813	12508	12509	1
12814	12508	12513	1
12815	12509	12510	2
12816	12510	12511	1
12817	12510	12514	1
12818	12511	12515	1
12819	12516	12517	2
12820	12516	12518	1
12821	12517	12519	1
12822	12517	12524	1
12823	12518	12520	1
12824	12518	12521	1
12825	12518	12546	1
12826	12520	12522	1
12827	12520	12605	1
12828	12520	12609	1
12829	12522	12523	1
12830	12522	12524	1
12831	12522	12545	1
12832	12524	12525	2
12833	12525	12526	1
12834	12525	12527	1
12835	12527	12528	2
12836	12527	12529	1
12837	12528	12530	1
12838	12528	12544	1
12839	12530	12531	2
12840	12530	12532	1
12841	12531	12533	1
12842	12531	12534	1
12843	12532	12535	1
12844	12532	12536	1
12845	12532	12537	1
12846	12533	12535	1
12847	12533	12538	2
12848	12534	12539	3
12849	12536	12613	1
12850	12536	12614	2
12851	12537	12623	1
12852	12537	12624	1
12853	12537	12625	1
12854	12538	12540	1
12855	12538	12541	1
12856	12540	12542	3
12857	12541	12543	3
12858	12547	12550	1
12859	12547	12602	1
12860	12547	12603	1
12861	12548	12549	1
12862	12548	12598	1
12863	12548	12601	1
12864	12549	12552	1
12865	12549	12599	1
12866	12549	12600	1
12867	12550	12551	1
12868	12550	12597	1
12869	12550	12604	1
12870	12551	12595	1
12871	12552	12596	1
12872	12553	12559	1
12873	12553	12571	1
12874	12553	12575	1
12875	12553	12596	1
12876	12554	12555	1
12877	12554	12563	1
12878	12554	12567	1
12879	12554	12595	1
12880	12555	12556	1
12881	12555	12557	1
12882	12555	12558	1
12883	12559	12560	1
12884	12559	12561	1
12885	12559	12562	1
12886	12563	12564	1
12887	12563	12565	1
12888	12563	12566	1
12889	12567	12568	1
12890	12567	12569	1
12891	12567	12570	1
12892	12571	12572	1
12893	12571	12573	1
12894	12571	12574	1
12895	12575	12576	1
12896	12575	12577	1
12897	12575	12578	1
12898	12579	12580	1
12899	12579	12581	1
12900	12579	12582	1
12901	12579	12596	1
12902	12583	12584	1
12903	12583	12585	1
12904	12583	12586	1
12905	12583	12596	1
12906	12587	12588	1
12907	12587	12589	1
12908	12587	12590	1
12909	12587	12595	1
12910	12591	12592	1
12911	12591	12593	1
12912	12591	12594	1
12913	12591	12595	1
12914	12605	12606	1
12915	12605	12607	1
12916	12605	12608	1
12917	12609	12610	1
12918	12609	12611	1
12919	12609	12612	1
12920	12613	12615	2
12921	12613	12616	1
12922	12614	12617	1
12923	12614	12618	1
12924	12615	12619	1
12925	12615	12620	1
12926	12617	12619	2
12927	12617	12622	1
12928	12619	12621	1
12929	12626	12627	2
12930	12626	12629	1
12931	12626	12634	1
12932	12627	12628	1
12933	12627	12641	1
12934	12630	12631	1
12935	12630	12672	1
12936	12630	12673	1
12937	12631	12632	1
12938	12631	12636	1
12939	12632	12633	2
12940	12632	12637	1
12941	12633	12634	1
12942	12633	12638	1
12943	12634	12635	2
12944	12635	12636	1
12945	12635	12639	1
12946	12636	12640	1
12947	12641	12642	2
12948	12641	12643	1
12949	12642	12644	1
12950	12642	12649	1
12951	12643	12645	1
12952	12643	12646	1
12953	12643	12671	1
12954	12645	12647	1
12955	12645	12730	1
12956	12645	12734	1
12957	12647	12648	1
12958	12647	12649	1
12959	12647	12670	1
12960	12649	12650	2
12961	12650	12651	1
12962	12650	12652	1
12963	12652	12653	2
12964	12652	12654	1
12965	12653	12655	1
12966	12653	12669	1
12967	12655	12656	2
12968	12655	12657	1
12969	12656	12658	1
12970	12656	12659	1
12971	12657	12660	1
12972	12657	12661	1
12973	12657	12662	1
12974	12658	12660	1
12975	12658	12663	2
12976	12659	12664	3
12977	12661	12738	1
12978	12661	12739	2
12979	12662	12748	1
12980	12662	12749	1
12981	12662	12750	1
12982	12663	12665	1
12983	12663	12666	1
12984	12665	12667	3
12985	12666	12668	3
12986	12672	12675	1
12987	12672	12727	1
12988	12672	12728	1
12989	12673	12674	1
12990	12673	12723	1
12991	12673	12726	1
12992	12674	12677	1
12993	12674	12724	1
12994	12674	12725	1
12995	12675	12676	1
12996	12675	12722	1
12997	12675	12729	1
12998	12676	12720	1
12999	12677	12721	1
13000	12678	12684	1
13001	12678	12696	1
13002	12678	12700	1
13003	12678	12721	1
13004	12679	12680	1
13005	12679	12688	1
13006	12679	12692	1
13007	12679	12720	1
13008	12680	12681	1
13009	12680	12682	1
13010	12680	12683	1
13011	12684	12685	1
13012	12684	12686	1
13013	12684	12687	1
13014	12688	12689	1
13015	12688	12690	1
13016	12688	12691	1
13017	12692	12693	1
13018	12692	12694	1
13019	12692	12695	1
13020	12696	12697	1
13021	12696	12698	1
13022	12696	12699	1
13023	12700	12701	1
13024	12700	12702	1
13025	12700	12703	1
13026	12704	12705	1
13027	12704	12706	1
13028	12704	12707	1
13029	12704	12721	1
13030	12708	12709	1
13031	12708	12710	1
13032	12708	12711	1
13033	12708	12721	1
13034	12712	12713	1
13035	12712	12714	1
13036	12712	12715	1
13037	12712	12720	1
13038	12716	12717	1
13039	12716	12718	1
13040	12716	12719	1
13041	12716	12720	1
13042	12730	12731	1
13043	12730	12732	1
13044	12730	12733	1
13045	12734	12735	1
13046	12734	12736	1
13047	12734	12737	1
13048	12738	12740	2
13049	12738	12741	1
13050	12739	12742	1
13051	12739	12743	1
13052	12740	12744	1
13053	12740	12745	1
13054	12742	12744	2
13055	12742	12747	1
13056	12744	12746	1
13057	12751	12752	2
13058	12751	12754	1
13059	12751	12759	1
13060	12752	12753	1
13061	12752	12766	1
13062	12755	12756	1
13063	12755	12810	1
13064	12755	12811	1
13065	12756	12757	1
13066	12756	12761	1
13067	12757	12758	2
13068	12757	12762	1
13069	12758	12759	1
13070	12758	12763	1
13071	12759	12760	2
13072	12760	12761	1
13073	12760	12764	1
13074	12761	12765	1
13075	12766	12767	2
13076	12766	12768	1
13077	12767	12769	1
13078	12767	12774	1
13079	12768	12770	1
13080	12768	12771	1
13081	12768	12809	1
13082	12770	12772	1
13083	12770	12868	1
13084	12770	12872	1
13085	12772	12773	1
13086	12772	12774	1
13087	12772	12808	1
13088	12774	12775	2
13089	12775	12776	1
13090	12775	12777	1
13091	12777	12778	2
13092	12777	12779	1
13093	12778	12780	1
13094	12778	12807	1
13095	12780	12781	2
13096	12780	12782	1
13097	12781	12783	1
13098	12781	12784	1
13099	12782	12785	1
13100	12782	12786	1
13101	12782	12787	1
13102	12783	12785	1
13103	12783	12788	2
13104	12784	12789	3
13105	12786	12790	1
13106	12786	12791	1
13107	12786	12792	1
13108	12787	12793	1
13109	12787	12794	2
13110	12788	12795	1
13111	12788	12796	1
13112	12793	12797	1
13113	12793	12798	2
13114	12794	12799	1
13115	12794	12800	1
13116	12795	12801	3
13117	12796	12802	3
13118	12798	12803	1
13119	12798	12804	1
13120	12799	12804	2
13121	12799	12805	1
13122	12804	12806	1
13123	12810	12813	1
13124	12810	12865	1
13125	12810	12866	1
13126	12811	12812	1
13127	12811	12861	1
13128	12811	12864	1
13129	12812	12815	1
13130	12812	12862	1
13131	12812	12863	1
13132	12813	12814	1
13133	12813	12860	1
13134	12813	12867	1
13135	12814	12858	1
13136	12815	12859	1
13137	12816	12822	1
13138	12816	12834	1
13139	12816	12838	1
13140	12816	12859	1
13141	12817	12818	1
13142	12817	12826	1
13143	12817	12830	1
13144	12817	12858	1
13145	12818	12819	1
13146	12818	12820	1
13147	12818	12821	1
13148	12822	12823	1
13149	12822	12824	1
13150	12822	12825	1
13151	12826	12827	1
13152	12826	12828	1
13153	12826	12829	1
13154	12830	12831	1
13155	12830	12832	1
13156	12830	12833	1
13157	12834	12835	1
13158	12834	12836	1
13159	12834	12837	1
13160	12838	12839	1
13161	12838	12840	1
13162	12838	12841	1
13163	12842	12843	1
13164	12842	12844	1
13165	12842	12845	1
13166	12842	12859	1
13167	12846	12847	1
13168	12846	12848	1
13169	12846	12849	1
13170	12846	12859	1
13171	12850	12851	1
13172	12850	12852	1
13173	12850	12853	1
13174	12850	12858	1
13175	12854	12855	1
13176	12854	12856	1
13177	12854	12857	1
13178	12854	12858	1
13179	12868	12869	1
13180	12868	12870	1
13181	12868	12871	1
13182	12872	12873	1
13183	12872	12874	1
13184	12872	12875	1
13185	12876	12877	2
13186	12876	12879	1
13187	12876	12884	1
13188	12877	12878	1
13189	12877	12891	1
13190	12880	12881	1
13191	12880	12935	1
13192	12880	12936	1
13193	12881	12882	1
13194	12881	12886	1
13195	12882	12883	2
13196	12882	12887	1
13197	12883	12884	1
13198	12883	12888	1
13199	12884	12885	2
13200	12885	12886	1
13201	12885	12889	1
13202	12886	12890	1
13203	12891	12892	2
13204	12891	12893	1
13205	12892	12894	1
13206	12892	12899	1
13207	12893	12895	1
13208	12893	12896	1
13209	12893	12934	1
13210	12895	12897	1
13211	12895	12993	1
13212	12895	12997	1
13213	12897	12898	1
13214	12897	12899	1
13215	12897	12933	1
13216	12899	12900	2
13217	12900	12901	1
13218	12900	12902	1
13219	12902	12903	2
13220	12902	12904	1
13221	12903	12905	1
13222	12903	12932	1
13223	12905	12906	2
13224	12905	12907	1
13225	12906	12908	1
13226	12906	12909	1
13227	12907	12910	1
13228	12907	12911	1
13229	12907	12912	1
13230	12908	12910	1
13231	12908	12913	2
13232	12909	12914	3
13233	12911	12915	1
13234	12911	12916	1
13235	12911	12917	1
13236	12912	12918	1
13237	12912	12919	2
13238	12913	12920	1
13239	12913	12921	1
13240	12918	12922	1
13241	12918	12923	2
13242	12919	12924	1
13243	12919	12925	1
13244	12920	12926	3
13245	12921	12927	3
13246	12923	12928	1
13247	12923	12929	1
13248	12924	12929	2
13249	12924	12930	1
13250	12929	12931	1
13251	12935	12938	1
13252	12935	12990	1
13253	12935	12991	1
13254	12936	12937	1
13255	12936	12986	1
13256	12936	12989	1
13257	12937	12940	1
13258	12937	12987	1
13259	12937	12988	1
13260	12938	12939	1
13261	12938	12985	1
13262	12938	12992	1
13263	12939	12983	1
13264	12940	12984	1
13265	12941	12947	1
13266	12941	12959	1
13267	12941	12963	1
13268	12941	12984	1
13269	12942	12943	1
13270	12942	12951	1
13271	12942	12955	1
13272	12942	12983	1
13273	12943	12944	1
13274	12943	12945	1
13275	12943	12946	1
13276	12947	12948	1
13277	12947	12949	1
13278	12947	12950	1
13279	12951	12952	1
13280	12951	12953	1
13281	12951	12954	1
13282	12955	12956	1
13283	12955	12957	1
13284	12955	12958	1
13285	12959	12960	1
13286	12959	12961	1
13287	12959	12962	1
13288	12963	12964	1
13289	12963	12965	1
13290	12963	12966	1
13291	12967	12968	1
13292	12967	12969	1
13293	12967	12970	1
13294	12967	12984	1
13295	12971	12972	1
13296	12971	12973	1
13297	12971	12974	1
13298	12971	12984	1
13299	12975	12976	1
13300	12975	12977	1
13301	12975	12978	1
13302	12975	12983	1
13303	12979	12980	1
13304	12979	12981	1
13305	12979	12982	1
13306	12979	12983	1
13307	12993	12994	1
13308	12993	12995	1
13309	12993	12996	1
13310	12997	12998	1
13311	12997	12999	1
13312	12997	13000	1
13313	13001	13002	2
13314	13001	13004	1
13315	13001	13009	1
13316	13002	13003	1
13317	13002	13016	1
13318	13005	13006	1
13319	13005	13060	1
13320	13005	13061	1
13321	13006	13007	1
13322	13006	13011	1
13323	13007	13008	2
13324	13007	13012	1
13325	13008	13009	1
13326	13008	13013	1
13327	13009	13010	2
13328	13010	13011	1
13329	13010	13014	1
13330	13011	13015	1
13331	13016	13017	2
13332	13016	13018	1
13333	13017	13019	1
13334	13017	13024	1
13335	13018	13020	1
13336	13018	13021	1
13337	13018	13059	1
13338	13020	13022	1
13339	13020	13118	1
13340	13020	13122	1
13341	13022	13023	1
13342	13022	13024	1
13343	13022	13058	1
13344	13024	13025	2
13345	13025	13026	1
13346	13025	13027	1
13347	13027	13028	2
13348	13027	13029	1
13349	13028	13030	1
13350	13028	13057	1
13351	13030	13031	2
13352	13030	13032	1
13353	13031	13033	1
13354	13031	13034	1
13355	13032	13035	1
13356	13032	13036	1
13357	13032	13037	1
13358	13033	13035	1
13359	13033	13038	2
13360	13034	13039	3
13361	13036	13040	1
13362	13036	13041	1
13363	13036	13042	1
13364	13037	13043	1
13365	13037	13044	2
13366	13038	13045	1
13367	13038	13046	1
13368	13043	13047	1
13369	13043	13048	2
13370	13044	13049	1
13371	13044	13050	1
13372	13045	13051	3
13373	13046	13052	3
13374	13048	13053	1
13375	13048	13054	1
13376	13049	13054	2
13377	13049	13055	1
13378	13054	13056	1
13379	13060	13063	1
13380	13060	13115	1
13381	13060	13116	1
13382	13061	13062	1
13383	13061	13111	1
13384	13061	13114	1
13385	13062	13065	1
13386	13062	13112	1
13387	13062	13113	1
13388	13063	13064	1
13389	13063	13110	1
13390	13063	13117	1
13391	13064	13108	1
13392	13065	13109	1
13393	13066	13072	1
13394	13066	13084	1
13395	13066	13088	1
13396	13066	13109	1
13397	13067	13068	1
13398	13067	13076	1
13399	13067	13080	1
13400	13067	13108	1
13401	13068	13069	1
13402	13068	13070	1
13403	13068	13071	1
13404	13072	13073	1
13405	13072	13074	1
13406	13072	13075	1
13407	13076	13077	1
13408	13076	13078	1
13409	13076	13079	1
13410	13080	13081	1
13411	13080	13082	1
13412	13080	13083	1
13413	13084	13085	1
13414	13084	13086	1
13415	13084	13087	1
13416	13088	13089	1
13417	13088	13090	1
13418	13088	13091	1
13419	13092	13093	1
13420	13092	13094	1
13421	13092	13095	1
13422	13092	13109	1
13423	13096	13097	1
13424	13096	13098	1
13425	13096	13099	1
13426	13096	13109	1
13427	13100	13101	1
13428	13100	13102	1
13429	13100	13103	1
13430	13100	13108	1
13431	13104	13105	1
13432	13104	13106	1
13433	13104	13107	1
13434	13104	13108	1
13435	13118	13119	1
13436	13118	13120	1
13437	13118	13121	1
13438	13122	13123	1
13439	13122	13124	1
13440	13122	13125	1
13441	13126	13127	2
13442	13126	13129	1
13443	13126	13134	1
13444	13127	13128	1
13445	13127	13141	1
13446	13130	13131	1
13447	13130	13185	1
13448	13130	13186	1
13449	13131	13132	1
13450	13131	13136	1
13451	13132	13133	2
13452	13132	13137	1
13453	13133	13134	1
13454	13133	13138	1
13455	13134	13135	2
13456	13135	13136	1
13457	13135	13139	1
13458	13136	13140	1
13459	13141	13142	2
13460	13141	13143	1
13461	13142	13144	1
13462	13142	13149	1
13463	13143	13145	1
13464	13143	13146	1
13465	13143	13184	1
13466	13145	13147	1
13467	13145	13243	1
13468	13145	13247	1
13469	13147	13148	1
13470	13147	13149	1
13471	13147	13183	1
13472	13149	13150	2
13473	13150	13151	1
13474	13150	13152	1
13475	13152	13153	2
13476	13152	13154	1
13477	13153	13155	1
13478	13153	13182	1
13479	13155	13156	2
13480	13155	13157	1
13481	13156	13158	1
13482	13156	13159	1
13483	13157	13160	1
13484	13157	13161	1
13485	13157	13162	1
13486	13158	13160	1
13487	13158	13163	2
13488	13159	13164	3
13489	13161	13165	1
13490	13161	13166	1
13491	13161	13167	1
13492	13162	13168	1
13493	13162	13169	2
13494	13163	13170	1
13495	13163	13171	1
13496	13168	13172	1
13497	13168	13173	2
13498	13169	13174	1
13499	13169	13175	1
13500	13170	13176	3
13501	13171	13177	3
13502	13173	13178	1
13503	13173	13179	1
13504	13174	13179	2
13505	13174	13180	1
13506	13179	13181	1
13507	13185	13188	1
13508	13185	13240	1
13509	13185	13241	1
13510	13186	13187	1
13511	13186	13236	1
13512	13186	13239	1
13513	13187	13190	1
13514	13187	13237	1
13515	13187	13238	1
13516	13188	13189	1
13517	13188	13235	1
13518	13188	13242	1
13519	13189	13233	1
13520	13190	13234	1
13521	13191	13197	1
13522	13191	13209	1
13523	13191	13213	1
13524	13191	13234	1
13525	13192	13193	1
13526	13192	13201	1
13527	13192	13205	1
13528	13192	13233	1
13529	13193	13194	1
13530	13193	13195	1
13531	13193	13196	1
13532	13197	13198	1
13533	13197	13199	1
13534	13197	13200	1
13535	13201	13202	1
13536	13201	13203	1
13537	13201	13204	1
13538	13205	13206	1
13539	13205	13207	1
13540	13205	13208	1
13541	13209	13210	1
13542	13209	13211	1
13543	13209	13212	1
13544	13213	13214	1
13545	13213	13215	1
13546	13213	13216	1
13547	13217	13218	1
13548	13217	13219	1
13549	13217	13220	1
13550	13217	13234	1
13551	13221	13222	1
13552	13221	13223	1
13553	13221	13224	1
13554	13221	13234	1
13555	13225	13226	1
13556	13225	13227	1
13557	13225	13228	1
13558	13225	13233	1
13559	13229	13230	1
13560	13229	13231	1
13561	13229	13232	1
13562	13229	13233	1
13563	13243	13244	1
13564	13243	13245	1
13565	13243	13246	1
13566	13247	13248	1
13567	13247	13249	1
13568	13247	13250	1
13569	13251	13252	2
13570	13251	13254	1
13571	13251	13259	1
13572	13252	13253	1
13573	13252	13266	1
13574	13255	13256	1
13575	13255	13310	1
13576	13255	13311	1
13577	13256	13257	1
13578	13256	13261	1
13579	13257	13258	2
13580	13257	13262	1
13581	13258	13259	1
13582	13258	13263	1
13583	13259	13260	2
13584	13260	13261	1
13585	13260	13264	1
13586	13261	13265	1
13587	13266	13267	2
13588	13266	13268	1
13589	13267	13269	1
13590	13267	13274	1
13591	13268	13270	1
13592	13268	13271	1
13593	13268	13309	1
13594	13270	13272	1
13595	13270	13368	1
13596	13270	13372	1
13597	13272	13273	1
13598	13272	13274	1
13599	13272	13308	1
13600	13274	13275	2
13601	13275	13276	1
13602	13275	13277	1
13603	13277	13278	2
13604	13277	13279	1
13605	13278	13280	1
13606	13278	13307	1
13607	13280	13281	2
13608	13280	13282	1
13609	13281	13283	1
13610	13281	13284	1
13611	13282	13285	1
13612	13282	13286	1
13613	13282	13287	1
13614	13283	13285	1
13615	13283	13288	2
13616	13284	13289	3
13617	13286	13290	1
13618	13286	13291	1
13619	13286	13292	1
13620	13287	13293	1
13621	13287	13294	2
13622	13288	13295	1
13623	13288	13296	1
13624	13293	13297	1
13625	13293	13298	2
13626	13294	13299	1
13627	13294	13300	1
13628	13295	13301	3
13629	13296	13302	3
13630	13298	13303	1
13631	13298	13304	1
13632	13299	13304	2
13633	13299	13305	1
13634	13304	13306	1
13635	13310	13313	1
13636	13310	13365	1
13637	13310	13366	1
13638	13311	13312	1
13639	13311	13361	1
13640	13311	13364	1
13641	13312	13315	1
13642	13312	13362	1
13643	13312	13363	1
13644	13313	13314	1
13645	13313	13360	1
13646	13313	13367	1
13647	13314	13358	1
13648	13315	13359	1
13649	13316	13322	1
13650	13316	13334	1
13651	13316	13338	1
13652	13316	13359	1
13653	13317	13318	1
13654	13317	13326	1
13655	13317	13330	1
13656	13317	13358	1
13657	13318	13319	1
13658	13318	13320	1
13659	13318	13321	1
13660	13322	13323	1
13661	13322	13324	1
13662	13322	13325	1
13663	13326	13327	1
13664	13326	13328	1
13665	13326	13329	1
13666	13330	13331	1
13667	13330	13332	1
13668	13330	13333	1
13669	13334	13335	1
13670	13334	13336	1
13671	13334	13337	1
13672	13338	13339	1
13673	13338	13340	1
13674	13338	13341	1
13675	13342	13343	1
13676	13342	13344	1
13677	13342	13345	1
13678	13342	13359	1
13679	13346	13347	1
13680	13346	13348	1
13681	13346	13349	1
13682	13346	13359	1
13683	13350	13351	1
13684	13350	13352	1
13685	13350	13353	1
13686	13350	13358	1
13687	13354	13355	1
13688	13354	13356	1
13689	13354	13357	1
13690	13354	13358	1
13691	13368	13369	1
13692	13368	13370	1
13693	13368	13371	1
13694	13372	13373	1
13695	13372	13374	1
13696	13372	13375	1
13697	13376	13377	2
13698	13376	13379	1
13699	13376	13384	1
13700	13377	13378	1
13701	13377	13391	1
13702	13380	13381	1
13703	13380	13435	1
13704	13380	13436	1
13705	13381	13382	1
13706	13381	13386	1
13707	13382	13383	2
13708	13382	13387	1
13709	13383	13384	1
13710	13383	13388	1
13711	13384	13385	2
13712	13385	13386	1
13713	13385	13389	1
13714	13386	13390	1
13715	13391	13392	2
13716	13391	13393	1
13717	13392	13394	1
13718	13392	13399	1
13719	13393	13395	1
13720	13393	13396	1
13721	13393	13434	1
13722	13395	13397	1
13723	13395	13493	1
13724	13395	13497	1
13725	13397	13398	1
13726	13397	13399	1
13727	13397	13433	1
13728	13399	13400	2
13729	13400	13401	1
13730	13400	13402	1
13731	13402	13403	2
13732	13402	13404	1
13733	13403	13405	1
13734	13403	13432	1
13735	13405	13406	2
13736	13405	13407	1
13737	13406	13408	1
13738	13406	13409	1
13739	13407	13410	1
13740	13407	13411	1
13741	13407	13412	1
13742	13408	13410	1
13743	13408	13413	2
13744	13409	13414	3
13745	13411	13415	1
13746	13411	13416	1
13747	13411	13417	1
13748	13412	13418	1
13749	13412	13419	2
13750	13413	13420	1
13751	13413	13421	1
13752	13418	13422	1
13753	13418	13423	2
13754	13419	13424	1
13755	13419	13425	1
13756	13420	13426	3
13757	13421	13427	3
13758	13423	13428	1
13759	13423	13429	1
13760	13424	13429	2
13761	13424	13430	1
13762	13429	13431	1
13763	13435	13438	1
13764	13435	13490	1
13765	13435	13491	1
13766	13436	13437	1
13767	13436	13486	1
13768	13436	13489	1
13769	13437	13440	1
13770	13437	13487	1
13771	13437	13488	1
13772	13438	13439	1
13773	13438	13485	1
13774	13438	13492	1
13775	13439	13483	1
13776	13440	13484	1
13777	13441	13447	1
13778	13441	13459	1
13779	13441	13463	1
13780	13441	13484	1
13781	13442	13443	1
13782	13442	13451	1
13783	13442	13455	1
13784	13442	13483	1
13785	13443	13444	1
13786	13443	13445	1
13787	13443	13446	1
13788	13447	13448	1
13789	13447	13449	1
13790	13447	13450	1
13791	13451	13452	1
13792	13451	13453	1
13793	13451	13454	1
13794	13455	13456	1
13795	13455	13457	1
13796	13455	13458	1
13797	13459	13460	1
13798	13459	13461	1
13799	13459	13462	1
13800	13463	13464	1
13801	13463	13465	1
13802	13463	13466	1
13803	13467	13468	1
13804	13467	13469	1
13805	13467	13470	1
13806	13467	13484	1
13807	13471	13472	1
13808	13471	13473	1
13809	13471	13474	1
13810	13471	13484	1
13811	13475	13476	1
13812	13475	13477	1
13813	13475	13478	1
13814	13475	13483	1
13815	13479	13480	1
13816	13479	13481	1
13817	13479	13482	1
13818	13479	13483	1
13819	13493	13494	1
13820	13493	13495	1
13821	13493	13496	1
13822	13497	13498	1
13823	13497	13499	1
13824	13497	13500	1

